data_300K-Frozen-From-1000K
_symmetry_space_group_name_H-M    'P1'
_symmetry_Int_Tables_number       1
_symmetry_cell_setting            triclinic
loop_
_symmetry_equiv_pos_as_xyz
  x,y,z
_cell_length_a                    19.3830
_cell_length_b                    19.3830
_cell_length_c                    19.3830
_cell_angle_alpha                 90.0000
_cell_angle_beta                  90.0000
_cell_angle_gamma                 90.0000
loop_
_atom_site_label
_atom_site_type_symbol
_atom_site_fract_x
_atom_site_fract_y
_atom_site_fract_z
_atom_site_U_iso_or_equiv
_atom_site_adp_type
_atom_site_occupancy
O1     O     0.72194   0.05783   0.49224   0.01267  Uiso   1.00
O2     O     0.78291   0.03477   0.27375   0.01267  Uiso   1.00
O3     O     0.43335   0.85960   0.88989   0.01267  Uiso   1.00
O4     O     0.30110   0.53529   0.07081   0.01267  Uiso   1.00
O5     O     0.06267   0.25485   0.61533   0.01267  Uiso   1.00
O6     O     0.00702   0.17571   0.69872   0.01267  Uiso   1.00
O7     O     0.79071   0.23655   0.15227   0.01267  Uiso   1.00
O8     O     0.24030   0.78418   0.74278   0.01267  Uiso   1.00
O9     O     0.76314   0.92668   0.85745   0.01267  Uiso   1.00
O10    O     0.62644   0.09730   0.36302   0.01267  Uiso   1.00
O11    O     0.57185   0.06627   0.08234   0.01267  Uiso   1.00
O12    O     0.63034   0.96307   0.30861   0.01267  Uiso   1.00
O13    O     0.57617   0.33024   0.11056   0.01267  Uiso   1.00
O14    O     0.18640   0.95139   0.00889   0.01267  Uiso   1.00
O15    O     0.30521   0.17467   0.27437   0.01267  Uiso   1.00
O16    O     0.10200   0.07975   0.32382   0.01267  Uiso   1.00
O17    O     0.90546   0.74720   0.19328   0.01267  Uiso   1.00
O18    O     0.70726   0.94663   0.68240   0.01267  Uiso   1.00
O19    O     0.93785   0.99840   0.17300   0.01267  Uiso   1.00
O20    O     0.28415   0.21566   0.83901   0.01267  Uiso   1.00
O21    O     0.05439   0.91248   0.60264   0.01267  Uiso   1.00
O22    O     0.84529   0.09590   0.51421   0.01267  Uiso   1.00
O23    O     0.99732   0.53876   0.42687   0.01267  Uiso   1.00
O24    O     0.11285   0.12626   0.06649   0.01267  Uiso   1.00
O25    O     0.25310   0.45125   0.98188   0.01267  Uiso   1.00
O26    O     0.81959   0.66856   0.06841   0.01267  Uiso   1.00
O27    O     0.14097   0.51609   0.34285   0.01267  Uiso   1.00
O28    O     0.90143   0.97147   0.30067   0.01267  Uiso   1.00
O29    O     0.00944   0.36344   0.71093   0.01267  Uiso   1.00
O30    O     0.85670   0.61600   0.94601   0.01267  Uiso   1.00
O31    O     0.77595   0.79332   0.86750   0.01267  Uiso   1.00
O32    O     0.17077   0.28272   0.28464   0.01267  Uiso   1.00
O33    O     0.61454   0.99057   0.44303   0.01267  Uiso   1.00
O34    O     0.14726   0.99527   0.65530   0.01267  Uiso   1.00
O35    O     0.35852   0.41569   0.05760   0.01267  Uiso   1.00
O36    O     0.17443   0.98484   0.25586   0.01267  Uiso   1.00
O37    O     0.01359   0.49380   0.67931   0.01267  Uiso   1.00
O38    O     0.46147   0.95536   0.23648   0.01267  Uiso   1.00
O39    O     0.62797   0.99459   0.18322   0.01267  Uiso   1.00
O40    O     0.94858   0.28752   0.80448   0.01267  Uiso   1.00
O41    O     0.51395   0.24282   0.19375   0.01267  Uiso   1.00
O42    O     0.08125   0.34805   0.35976   0.01267  Uiso   1.00
O43    O     0.45498   0.99011   0.05227   0.01267  Uiso   1.00
O44    O     0.09003   0.93853   0.09488   0.01267  Uiso   1.00
O45    O     0.02848   0.77382   0.34537   0.01267  Uiso   1.00
O46    O     0.96532   0.38300   0.00516   0.01267  Uiso   1.00
O47    O     0.13647   0.46521   0.90896   0.01267  Uiso   1.00
O48    O     0.06220   0.21087   0.33049   0.01267  Uiso   1.00
O49    O     0.10474   0.75540   0.73512   0.01267  Uiso   1.00
O50    O     0.12029   0.96231   0.89430   0.01267  Uiso   1.00
O51    O     0.05699   0.52187   0.80409   0.01267  Uiso   1.00
O52    O     0.87764   0.14475   0.87422   0.01267  Uiso   1.00
O53    O     0.91763   0.25492   0.00283   0.01267  Uiso   1.00
O54    O     0.21073   0.60057   0.99538   0.01267  Uiso   1.00
O55    O     0.11532   0.83016   0.91526   0.01267  Uiso   1.00
O56    O     0.38130   0.21156   0.97802   0.01267  Uiso   1.00
O57    O     0.82210   0.84820   0.47273   0.01267  Uiso   1.00
O58    O     0.30873   0.30707   0.13147   0.01267  Uiso   1.00
O59    O     0.94147   0.82185   0.08967   0.01267  Uiso   1.00
O60    O     0.35978   0.92130   0.98883   0.01267  Uiso   1.00
O61    O     0.81514   0.47448   0.73729   0.01267  Uiso   1.00
O62    O     0.91200   0.83973   0.37831   0.01267  Uiso   1.00
O63    O     0.97662   0.10820   0.30010   0.01267  Uiso   1.00
O64    O     0.66652   0.07208   0.69166   0.01267  Uiso   1.00
O65    O     0.22436   0.90302   0.13130   0.01267  Uiso   1.00
O66    O     0.30954   0.81941   0.90455   0.01267  Uiso   1.00
O67    O     0.14149   0.86898   0.79655   0.01267  Uiso   1.00
O68    O     0.37973   0.50192   0.95573   0.01267  Uiso   1.00
O69    O     0.64139   0.76605   0.85225   0.01267  Uiso   1.00
O70    O     0.23183   0.10493   0.65286   0.01267  Uiso   1.00
O71    O     0.51943   0.79160   0.81181   0.01267  Uiso   1.00
O72    O     0.46983   0.11875   0.01150   0.01267  Uiso   1.00
O73    O     0.75314   0.52736   0.96700   0.01267  Uiso   1.00
O74    O     0.92066   0.24706   0.20558   0.01267  Uiso   1.00
O75    O     0.48196   0.24261   0.06356   0.01267  Uiso   1.00
O76    O     0.96369   0.99638   0.72839   0.01267  Uiso   1.00
O77    O     0.90535   0.73955   0.99137   0.01267  Uiso   1.00
O78    O     0.28411   0.03231   0.29984   0.01267  Uiso   1.00
O79    O     0.66955   0.00496   0.91122   0.01267  Uiso   1.00
O80    O     0.77380   0.97303   0.10670   0.01267  Uiso   1.00
O81    O     0.34477   0.43186   0.18821   0.01267  Uiso   1.00
O82    O     0.29319   0.91172   0.24505   0.01267  Uiso   1.00
O83    O     0.81979   0.20075   0.27829   0.01267  Uiso   1.00
O84    O     0.93101   0.54525   0.77128   0.01267  Uiso   1.00
O85    O     0.54044   0.71349   0.92264   0.01267  Uiso   1.00
O86    O     0.15549   0.61881   0.87407   0.01267  Uiso   1.00
O87    O     0.99005   0.09734   0.10500   0.01267  Uiso   1.00
O88    O     0.59210   0.88034   0.04322   0.01267  Uiso   1.00
O89    O     0.02160   0.14093   0.56447   0.01267  Uiso   1.00
O90    O     0.99421   0.50882   0.04851   0.01267  Uiso   1.00
O91    O     0.29716   0.92590   0.78651   0.01267  Uiso   1.00
O92    O     0.02984   0.62912   0.72684   0.01267  Uiso   1.00
O93    O     0.16406   0.20615   0.97542   0.01267  Uiso   1.00
O94    O     0.04602   0.39289   0.83599   0.01267  Uiso   1.00
O95    O     0.31877   0.80771   0.15603   0.01267  Uiso   1.00
O96    O     0.73225   0.27563   0.99081   0.01267  Uiso   1.00
O97    O     0.04754   0.14067   0.83109   0.01267  Uiso   1.00
O98    O     0.85847   0.07799   0.75804   0.01267  Uiso   1.00
O99    O     0.99422   0.79420   0.47761   0.01267  Uiso   1.00
O100   O     0.18366   0.91029   0.54987   0.01267  Uiso   1.00
O101   O     0.01729   0.89339   0.85406   0.01267  Uiso   1.00
O102   O     0.88436   0.49105   0.98203   0.01267  Uiso   1.00
O103   O     0.71708   0.68686   0.92996   0.01267  Uiso   1.00
O104   O     0.24453   0.13812   0.06522   0.01267  Uiso   1.00
O105   O     0.94687   0.86815   0.96393   0.01267  Uiso   1.00
O106   O     0.88288   0.86858   0.84704   0.01267  Uiso   1.00
O107   O     0.03412   0.77331   0.00370   0.01267  Uiso   1.00
O108   O     0.46173   0.04771   0.76158   0.01267  Uiso   1.00
O109   O     0.15778   0.86005   0.66729   0.01267  Uiso   1.00
O110   O     0.91844   0.41625   0.79967   0.01267  Uiso   1.00
O111   O     0.99978   0.48837   0.91957   0.01267  Uiso   1.00
O112   O     0.72596   0.93132   0.50862   0.01267  Uiso   1.00
O113   O     0.91503   0.40706   0.62708   0.01267  Uiso   1.00
O114   O     0.34324   0.05419   0.81852   0.01267  Uiso   1.00
O115   O     0.79114   0.85344   0.75043   0.01267  Uiso   1.00
O116   O     0.15392   0.28901   0.08167   0.01267  Uiso   1.00
O117   O     0.11391   0.10772   0.72535   0.01267  Uiso   1.00
O118   O     0.32915   0.12353   0.56727   0.01267  Uiso   1.00
O119   O     0.14487   0.70876   0.97416   0.01267  Uiso   1.00
O120   O     0.24821   0.99138   0.88818   0.01267  Uiso   1.00
O121   O     0.72139   0.85061   0.08893   0.01267  Uiso   1.00
O122   O     0.80133   0.77114   0.35717   0.01267  Uiso   1.00
O123   O     0.52762   0.07444   0.20767   0.01267  Uiso   1.00
O124   O     0.02551   0.89849   0.40929   0.01267  Uiso   1.00
O125   O     0.14535   0.45450   0.22346   0.01267  Uiso   1.00
O126   O     0.12549   0.71056   0.18911   0.01267  Uiso   1.00
O127   O     0.62669   0.76095   0.09256   0.01267  Uiso   1.00
O128   O     0.05208   0.28062   0.98867   0.01267  Uiso   1.00
O129   O     0.59821   0.86232   0.21936   0.01267  Uiso   1.00
O130   O     0.12906   0.44554   0.03968   0.01267  Uiso   1.00
O131   O     0.10569   0.23746   0.75836   0.01267  Uiso   1.00
O132   O     0.10363   0.04874   0.50505   0.01267  Uiso   1.00
O133   O     0.77434   0.18216   0.80210   0.01267  Uiso   1.00
O134   O     0.33420   0.04421   0.04695   0.01267  Uiso   1.00
O135   O     0.39578   0.80009   0.01163   0.01267  Uiso   1.00
O136   O     0.19499   0.60537   0.13333   0.01267  Uiso   1.00
O137   O     0.79802   0.91292   0.35455   0.01267  Uiso   1.00
O138   O     0.21746   0.93571   0.36461   0.01267  Uiso   1.00
O139   O     0.76753   0.15686   0.41695   0.01267  Uiso   1.00
O140   O     0.56722   0.99706   0.82335   0.01267  Uiso   1.00
O141   O     0.35355   0.93414   0.12159   0.01267  Uiso   1.00
O142   O     0.99739   0.71048   0.82256   0.01267  Uiso   1.00
O143   O     0.81895   0.03648   0.40039   0.01267  Uiso   1.00
O144   O     0.89907   0.05439   0.63257   0.01267  Uiso   1.00
O145   O     0.04500   0.19979   0.16316   0.01267  Uiso   1.00
O146   O     0.06292   0.61038   0.11587   0.01267  Uiso   1.00
O147   O     0.03497   0.40568   0.57387   0.01267  Uiso   1.00
O148   O     0.04143   0.30388   0.23959   0.01267  Uiso   1.00
O149   O     0.54218   0.02335   0.95073   0.01267  Uiso   1.00
O150   O     0.22102   0.03466   0.76379   0.01267  Uiso   1.00
O151   O     0.38318   0.15523   0.10171   0.01267  Uiso   1.00
O152   O     0.55928   0.66376   0.79829   0.01267  Uiso   1.00
O153   O     0.32858   0.01049   0.64315   0.01267  Uiso   1.00
O154   O     0.96617   0.03470   0.51248   0.01267  Uiso   1.00
O155   O     0.17376   0.34439   0.96308   0.01267  Uiso   1.00
O156   O     0.30481   0.08718   0.17778   0.01267  Uiso   1.00
O157   O     0.47241   0.91150   0.77174   0.01267  Uiso   1.00
O158   O     0.17658   0.07426   0.95859   0.01267  Uiso   1.00
O159   O     0.56259   0.97656   0.69202   0.01267  Uiso   1.00
O160   O     0.38979   0.79868   0.77681   0.01267  Uiso   1.00
O161   O     0.09613   0.07234   0.18817   0.01267  Uiso   1.00
O162   O     0.15135   0.82554   0.04537   0.01267  Uiso   1.00
O163   O     0.95256   0.87509   0.21331   0.01267  Uiso   1.00
O164   O     0.29500   0.67462   0.07232   0.01267  Uiso   1.00
O165   O     0.87357   0.12723   0.17158   0.01267  Uiso   1.00
O166   O     0.74259   0.09065   0.04658   0.01267  Uiso   1.00
O167   O     0.03654   0.97585   0.25584   0.01267  Uiso   1.00
O168   O     0.98881   0.30514   0.10913   0.01267  Uiso   1.00
O169   O     0.40159   0.07051   0.26706   0.01267  Uiso   1.00
O170   O     0.42290   0.16538   0.82983   0.01267  Uiso   1.00
O171   O     0.98075   0.75381   0.68856   0.01267  Uiso   1.00
O172   O     0.65005   0.12912   0.17748   0.01267  Uiso   1.00
O173   O     0.72406   0.90910   0.21523   0.01267  Uiso   1.00
O174   O     0.07120   0.60394   0.98390   0.01267  Uiso   1.00
O175   O     0.83396   0.86648   0.16002   0.01267  Uiso   1.00
O176   O     0.85314   0.96574   0.54265   0.01267  Uiso   1.00
O177   O     0.67877   0.80814   0.97171   0.01267  Uiso   1.00
O178   O     0.36460   0.12411   0.70197   0.01267  Uiso   1.00
O179   O     0.61605   0.30356   0.85337   0.01267  Uiso   1.00
O180   O     0.83753   0.51360   0.86022   0.01267  Uiso   1.00
O181   O     0.79254   0.99219   0.97332   0.01267  Uiso   1.00
O182   O     0.02091   0.11747   0.42631   0.01267  Uiso   1.00
O183   O     0.83517   0.95944   0.69866   0.01267  Uiso   1.00
O184   O     0.77612   0.05990   0.85639   0.01267  Uiso   1.00
O185   O     0.51876   0.02650   0.33396   0.01267  Uiso   1.00
O186   O     0.59989   0.11785   0.87195   0.01267  Uiso   1.00
O187   O     0.79470   0.86843   0.60999   0.01267  Uiso   1.00
O188   O     0.87165   0.04803   0.06699   0.01267  Uiso   1.00
O189   O     0.02162   0.48469   0.27782   0.01267  Uiso   1.00
O190   O     0.94813   0.62516   0.04032   0.01267  Uiso   1.00
O191   O     0.10822   0.58203   0.23508   0.01267  Uiso   1.00
O192   O     0.43711   0.33833   0.13736   0.01267  Uiso   1.00
O193   O     0.92939   0.23051   0.60508   0.01267  Uiso   1.00
O194   O     0.63254   0.98641   0.58006   0.01267  Uiso   1.00
O195   O     0.94046   0.98433   0.90180   0.01267  Uiso   1.00
Na196  Na    0.89996   0.63662   0.15896   0.01267  Uiso   1.00
Na197  Na    0.55134   0.16979   0.28841   0.01267  Uiso   1.00
Na198  Na    0.69309   0.38780   0.95007   0.01267  Uiso   1.00
Na199  Na    0.29550   0.95065   0.54533   0.01267  Uiso   1.00
Na200  Na    0.19068   0.40127   0.33391   0.01267  Uiso   1.00
Na201  Na    0.88186   0.72146   0.85473   0.01267  Uiso   1.00
Na202  Na    0.02406   0.02892   0.64954   0.01267  Uiso   1.00
Na203  Na    0.91205   0.76689   0.59811   0.01267  Uiso   1.00
Na204  Na    0.93631   0.45397   0.49769   0.01267  Uiso   1.00
Na205  Na    0.33272   0.74626   0.25810   0.01267  Uiso   1.00
Na206  Na    0.53277   0.20895   0.83918   0.01267  Uiso   1.00
Na207  Na    0.07466   0.45783   0.43006   0.01267  Uiso   1.00
Na208  Na    0.28479   0.27039   0.02179   0.01267  Uiso   1.00
Na209  Na    0.50540   0.91556   0.13601   0.01267  Uiso   1.00
Na210  Na    0.49649   0.71828   0.70585   0.01267  Uiso   1.00
Na211  Na    0.40047   0.01560   0.40061   0.01267  Uiso   1.00
Na212  Na    0.40792   0.22590   0.22627   0.01267  Uiso   1.00
Na213  Na    0.99835   0.61379   0.87777   0.01267  Uiso   1.00
Na214  Na    0.65916   0.15169   0.77454   0.01267  Uiso   1.00
Na215  Na    0.24943   0.49728   0.19422   0.01267  Uiso   1.00
Na216  Na    0.71108   0.62584   0.03442   0.01267  Uiso   1.00
Na217  Na    0.00783   0.66165   0.44566   0.01267  Uiso   1.00
Na218  Na    0.12968   0.93532   0.43669   0.01267  Uiso   1.00
Na219  Na    0.69315   0.19126   0.07296   0.01267  Uiso   1.00
Na220  Na    0.97484   0.89663   0.52308   0.01267  Uiso   1.00
Na221  Na    0.23043   0.82195   0.46071   0.01267  Uiso   1.00
Na222  Na    0.77624   0.33105   0.09901   0.01267  Uiso   1.00
Na223  Na    0.18683   0.28714   0.83855   0.01267  Uiso   1.00
Na224  Na    0.60178   0.29643   0.99183   0.01267  Uiso   1.00
Na225  Na    0.98344   0.96009   0.05895   0.01267  Uiso   1.00
Na226  Na    0.57445   0.89975   0.92091   0.01267  Uiso   1.00
Na227  Na    0.49911   0.84633   0.28079   0.01267  Uiso   1.00
Na228  Na    0.09773   0.31988   0.49417   0.01267  Uiso   1.00
Na229  Na    0.37791   0.48704   0.44541   0.01267  Uiso   1.00
Na230  Na    0.58482   0.59415   0.15872   0.01267  Uiso   1.00
Na231  Na    0.13202   0.70909   0.31954   0.01267  Uiso   1.00
Na232  Na    0.18141   0.65687   0.76386   0.01267  Uiso   1.00
Na233  Na    0.28578   0.59983   0.56868   0.01267  Uiso   1.00
Na234  Na    0.81154   0.18405   0.02643   0.01267  Uiso   1.00
Na235  Na    0.97160   0.99602   0.38975   0.01267  Uiso   1.00
Na236  Na    0.98378   0.20854   0.89619   0.01267  Uiso   1.00
Na237  Na    0.21260   0.76416   0.12561   0.01267  Uiso   1.00
Na238  Na    0.51217   0.76518   0.01952   0.01267  Uiso   1.00
Na239  Na    0.06924   0.78743   0.56361   0.01267  Uiso   1.00
Na240  Na    0.01824   0.03110   0.82561   0.01267  Uiso   1.00
Na241  Na    0.74718   0.08039   0.17148   0.01267  Uiso   1.00
Na242  Na    0.88921   0.22705   0.73092   0.01267  Uiso   1.00
Na243  Na    0.66010   0.58173   0.91746   0.01267  Uiso   1.00
Na244  Na    0.20254   0.23003   0.17595   0.01267  Uiso   1.00
Na245  Na    0.71982   0.13267   0.27694   0.01267  Uiso   1.00
Na246  Na    0.77549   0.72589   0.16575   0.01267  Uiso   1.00
Na247  Na    0.72274   0.30430   0.80183   0.01267  Uiso   1.00
Na248  Na    0.68290   0.22485   0.90439   0.01267  Uiso   1.00
Na249  Na    0.97347   0.37224   0.31038   0.01267  Uiso   1.00
Na250  Na    0.19143   0.14661   0.84181   0.01267  Uiso   1.00
Na251  Na    0.97862   0.88249   0.69466   0.01267  Uiso   1.00
Na252  Na    0.06888   0.52649   0.53809   0.01267  Uiso   1.00
Na253  Na    0.85883   0.26335   0.89793   0.01267  Uiso   1.00
Na254  Na    0.31737   0.25241   0.73877   0.01267  Uiso   1.00
Na255  Na    0.93526   0.09042   0.94923   0.01267  Uiso   1.00
Na256  Na    0.19004   0.04228   0.42270   0.01267  Uiso   1.00
Na257  Na    0.33458   0.11122   0.91742   0.01267  Uiso   1.00
Na258  Na    0.47885   0.10810   0.55595   0.01267  Uiso   1.00
Na259  Na    0.15765   0.17771   0.58661   0.01267  Uiso   1.00
Na260  Na    0.28585   0.70240   0.91792   0.01267  Uiso   1.00
Na261  Na    0.35936   0.90167   0.68476   0.01267  Uiso   1.00
Na262  Na    0.23316   0.53765   0.86014   0.01267  Uiso   1.00
Na263  Na    0.47037   0.61113   0.92672   0.01267  Uiso   1.00
Na264  Na    0.66981   0.26386   0.19783   0.01267  Uiso   1.00
Na265  Na    0.38292   0.46324   0.76501   0.01267  Uiso   1.00
Na266  Na    0.19018   0.36345   0.16918   0.01267  Uiso   1.00
Na267  Na    0.07036   0.42228   0.13245   0.01267  Uiso   1.00
Na268  Na    0.89162   0.71569   0.30188   0.01267  Uiso   1.00
Na269  Na    0.39170   0.54434   0.14348   0.01267  Uiso   1.00
Na270  Na    0.72527   0.53428   0.72559   0.01267  Uiso   1.00
Na271  Na    0.75298   0.14214   0.62804   0.01267  Uiso   1.00
Na272  Na    0.07182   0.80210   0.23055   0.01267  Uiso   1.00
Na273  Na    0.88434   0.14351   0.35876   0.01267  Uiso   1.00
Si274  Si    0.77861   0.89934   0.68622   0.01267  Uiso   1.00
Si275  Si    0.37097   0.84546   0.94937   0.01267  Uiso   1.00
Si276  Si    0.88886   0.02521   0.70851   0.01267  Uiso   1.00
Si277  Si    0.50700   0.28802   0.12908   0.01267  Uiso   1.00
Si278  Si    0.51345   0.04885   0.02579   0.01267  Uiso   1.00
Si279  Si    0.09166   0.28573   0.30617   0.01267  Uiso   1.00
Si280  Si    0.97343   0.30635   0.02332   0.01267  Uiso   1.00
Si281  Si    0.36085   0.37183   0.12969   0.01267  Uiso   1.00
Si282  Si    0.09737   0.88860   0.85966   0.01267  Uiso   1.00
Si283  Si    0.13373   0.27993   0.00088   0.01267  Uiso   1.00
Si284  Si    0.94327   0.90780   0.88794   0.01267  Uiso   1.00
Si285  Si    0.82303   0.98890   0.32525   0.01267  Uiso   1.00
Si286  Si    0.82691   0.53627   0.94185   0.01267  Uiso   1.00
Si287  Si    0.91776   0.06755   0.13509   0.01267  Uiso   1.00
Si288  Si    0.99351   0.82474   0.39833   0.01267  Uiso   1.00
Si289  Si    0.95506   0.80419   0.01156   0.01267  Uiso   1.00
Si290  Si    0.43038   0.18505   0.03500   0.01267  Uiso   1.00
Si291  Si    0.97708   0.35820   0.78597   0.01267  Uiso   1.00
Si292  Si    0.16081   0.90951   0.07683   0.01267  Uiso   1.00
Si293  Si    0.71087   0.76185   0.90795   0.01267  Uiso   1.00
Si294  Si    0.76192   0.90091   0.13937   0.01267  Uiso   1.00
Si295  Si    0.87359   0.48928   0.79190   0.01267  Uiso   1.00
Si296  Si    0.16428   0.81475   0.73484   0.01267  Uiso   1.00
Si297  Si    0.99912   0.26423   0.18220   0.01267  Uiso   1.00
Si298  Si    0.78759   0.09130   0.45416   0.01267  Uiso   1.00
Si299  Si    0.31534   0.10422   0.10138   0.01267  Uiso   1.00
Si300  Si    0.00240   0.20040   0.61684   0.01267  Uiso   1.00
Si301  Si    0.59449   0.01716   0.36505   0.01267  Uiso   1.00
Si302  Si    0.89494   0.03991   0.55167   0.01267  Uiso   1.00
Si303  Si    0.96158   0.46334   0.99089   0.01267  Uiso   1.00
Si304  Si    0.47424   0.02996   0.26221   0.01267  Uiso   1.00
Si305  Si    0.64928   0.82374   0.05016   0.01267  Uiso   1.00
Si306  Si    0.06124   0.46423   0.86351   0.01267  Uiso   1.00
Si307  Si    0.31958   0.09077   0.63865   0.01267  Uiso   1.00
Si308  Si    0.79667   0.89948   0.53207   0.01267  Uiso   1.00
Si309  Si    0.99443   0.41629   0.64210   0.01267  Uiso   1.00
Si310  Si    0.67078   0.99123   0.50450   0.01267  Uiso   1.00
Si311  Si    0.10456   0.50576   0.26967   0.01267  Uiso   1.00
Si312  Si    0.17668   0.13601   0.01539   0.01267  Uiso   1.00
Si313  Si    0.80424   0.85854   0.82831   0.01267  Uiso   1.00
Si314  Si    0.25090   0.60496   0.06972   0.01267  Uiso   1.00
Si315  Si    0.74910   0.99549   0.89892   0.01267  Uiso   1.00
Si316  Si    0.17706   0.05676   0.69657   0.01267  Uiso   1.00
Si317  Si    0.11433   0.78353   0.98637   0.01267  Uiso   1.00
Si318  Si    0.10344   0.02641   0.25535   0.01267  Uiso   1.00
Si319  Si    0.59740   0.04043   0.89063   0.01267  Uiso   1.00
Si320  Si    0.45487   0.84064   0.81220   0.01267  Uiso   1.00
Si321  Si    0.83196   0.83860   0.38745   0.01267  Uiso   1.00
Si322  Si    0.87569   0.66347   0.01138   0.01267  Uiso   1.00
Si323  Si    0.39946   0.10214   0.78025   0.01267  Uiso   1.00
Si324  Si    0.84599   0.20589   0.20389   0.01267  Uiso   1.00
Si325  Si    0.27726   0.99790   0.81506   0.01267  Uiso   1.00
Si326  Si    0.51209   0.98566   0.76142   0.01267  Uiso   1.00
Si327  Si    0.32191   0.09761   0.25966   0.01267  Uiso   1.00
Si328  Si    0.13399   0.92402   0.61119   0.01267  Uiso   1.00
Si329  Si    0.37432   0.96876   0.05002   0.01267  Uiso   1.00
Si330  Si    0.64405   0.99987   0.66984   0.01267  Uiso   1.00
Si331  Si    0.24471   0.95950   0.29419   0.01267  Uiso   1.00
Si332  Si    0.01017   0.55059   0.74118   0.01267  Uiso   1.00
Si333  Si    0.02713   0.71459   0.74487   0.01267  Uiso   1.00
Si334  Si    0.12131   0.62990   0.17276   0.01267  Uiso   1.00
Si335  Si    0.64626   0.92895   0.23586   0.01267  Uiso   1.00
Si336  Si    0.82215   0.11980   0.82287   0.01267  Uiso   1.00
Si337  Si    0.18451   0.99110   0.94050   0.01267  Uiso   1.00
Si338  Si    0.03459   0.08636   0.50186   0.01267  Uiso   1.00
Si339  Si    0.17313   0.43014   0.97552   0.01267  Uiso   1.00
Si340  Si    0.30259   0.88901   0.16696   0.01267  Uiso   1.00
Si341  Si    0.06402   0.12349   0.12920   0.01267  Uiso   1.00
Si342  Si    0.01912   0.58775   0.05116   0.01267  Uiso   1.00
Si343  Si    0.79269   0.02538   0.04676   0.01267  Uiso   1.00
Si344  Si    0.90751   0.82360   0.16680   0.01267  Uiso   1.00
Si345  Si    0.56582   0.72945   0.84453   0.01267  Uiso   1.00
Si346  Si    0.06421   0.16736   0.76008   0.01267  Uiso   1.00
Si347  Si    0.32948   0.47589   0.01272   0.01267  Uiso   1.00
Si348  Si    0.04082   0.13278   0.34452   0.01267  Uiso   1.00
Si349  Si    0.59916   0.06868   0.16509   0.01267  Uiso   1.00
Si350  Si    0.95907   0.95454   0.24081   0.01267  Uiso   1.00
Si351  Si    0.14200   0.62823   0.95039   0.01267  Uiso   1.00
Se352  Se    0.20355   0.38617   0.69412   0.01267  Uiso   1.00
Se353  Se    0.35362   0.35566   0.33971   0.01267  Uiso   1.00
Se354  Se    0.22269   0.20698   0.43799   0.01267  Uiso   1.00
Se355  Se    0.35021   0.30564   0.57219   0.01267  Uiso   1.00
Se356  Se    0.42982   0.18807   0.42873   0.01267  Uiso   1.00
Se357  Se    0.62487   0.18723   0.54176   0.01267  Uiso   1.00
Se358  Se    0.16761   0.65779   0.47260   0.01267  Uiso   1.00
Se359  Se    0.31050   0.58965   0.33618   0.01267  Uiso   1.00
Se360  Se    0.22543   0.46296   0.50062   0.01267  Uiso   1.00
Se361  Se    0.42935   0.48933   0.61184   0.01267  Uiso   1.00
Se362  Se    0.50289   0.50211   0.26994   0.01267  Uiso   1.00
Se363  Se    0.52011   0.37102   0.47409   0.01267  Uiso   1.00
Se364  Se    0.55264   0.32425   0.68809   0.01267  Uiso   1.00
Se365  Se    0.43276   0.35141   0.87225   0.01267  Uiso   1.00
Se366  Se    0.66790   0.28066   0.35455   0.01267  Uiso   1.00
Se367  Se    0.75821   0.31132   0.63143   0.01267  Uiso   1.00
Se368  Se    0.47113   0.71735   0.17048   0.01267  Uiso   1.00
Se369  Se    0.38169   0.76872   0.40458   0.01267  Uiso   1.00
Se370  Se    0.36483   0.74353   0.60764   0.01267  Uiso   1.00
Se371  Se    0.52965   0.48598   0.03679   0.01267  Uiso   1.00
Se372  Se    0.49619   0.60190   0.44919   0.01267  Uiso   1.00
Se373  Se    0.59045   0.59988   0.63121   0.01267  Uiso   1.00
Se374  Se    0.34188   0.62662   0.77615   0.01267  Uiso   1.00
Se375  Se    0.69976   0.45906   0.17029   0.01267  Uiso   1.00
Se376  Se    0.67268   0.48754   0.38707   0.01267  Uiso   1.00
Se377  Se    0.79198   0.50358   0.55840   0.01267  Uiso   1.00
Se378  Se    0.56533   0.48485   0.82422   0.01267  Uiso   1.00
Se379  Se    0.86794   0.30423   0.43509   0.01267  Uiso   1.00
Se380  Se    0.45873   0.90918   0.53039   0.01267  Uiso   1.00
Se381  Se    0.60508   0.80454   0.62251   0.01267  Uiso   1.00
Se382  Se    0.65413   0.70007   0.27081   0.01267  Uiso   1.00
Se383  Se    0.71557   0.67733   0.47916   0.01267  Uiso   1.00
Se384  Se    0.84869   0.54882   0.28811   0.01267  Uiso   1.00
Cd385  Cd    0.25817   0.24435   0.32718   0.01267  Uiso   1.00
Cd386  Cd    0.43128   0.30531   0.41553   0.01267  Uiso   1.00
Cd387  Cd    0.10673   0.31079   0.69089   0.01267  Uiso   1.00
Cd388  Cd    0.37176   0.23814   0.87951   0.01267  Uiso   1.00
Cd389  Cd    0.64636   0.16906   0.42799   0.01267  Uiso   1.00
Cd390  Cd    0.33210   0.20190   0.51294   0.01267  Uiso   1.00
Cd391  Cd    0.20337   0.55104   0.40721   0.01267  Uiso   1.00
Cd392  Cd    0.39482   0.65238   0.39148   0.01267  Uiso   1.00
Cd393  Cd    0.26190   0.39564   0.58918   0.01267  Uiso   1.00
Cd394  Cd    0.46561   0.45715   0.93467   0.01267  Uiso   1.00
Cd395  Cd    0.39346   0.44426   0.27005   0.01267  Uiso   1.00
Cd396  Cd    0.62477   0.37693   0.41205   0.01267  Uiso   1.00
Cd397  Cd    0.46023   0.36289   0.59045   0.01267  Uiso   1.00
Cd398  Cd    0.54874   0.35668   0.80748   0.01267  Uiso   1.00
Cd399  Cd    0.79034   0.24624   0.36798   0.01267  Uiso   1.00
Cd400  Cd    0.63699   0.27520   0.61582   0.01267  Uiso   1.00
Cd401  Cd    0.40753   0.80026   0.51186   0.01267  Uiso   1.00
Cd402  Cd    0.33808   0.73180   0.72343   0.01267  Uiso   1.00
Cd403  Cd    0.30445   0.83141   0.80492   0.01267  Uiso   1.00
Cd404  Cd    0.36824   0.74406   0.09476   0.01267  Uiso   1.00
Cd405  Cd    0.56400   0.54552   0.35992   0.01267  Uiso   1.00
Cd406  Cd    0.50319   0.56409   0.56095   0.01267  Uiso   1.00
Cd407  Cd    0.55530   0.57846   0.74973   0.01267  Uiso   1.00
Cd408  Cd    0.59655   0.43035   0.11451   0.01267  Uiso   1.00
Cd409  Cd    0.74668   0.49023   0.27403   0.01267  Uiso   1.00
Cd410  Cd    0.72041   0.55752   0.47520   0.01267  Uiso   1.00
Cd411  Cd    0.81895   0.43006   0.65089   0.01267  Uiso   1.00
Cd412  Cd    0.86666   0.29927   0.56856   0.01267  Uiso   1.00
Cd413  Cd    0.59856   0.76563   0.18926   0.01267  Uiso   1.00
Cd414  Cd    0.54788   0.91285   0.60889   0.01267  Uiso   1.00
Cd415  Cd    0.71831   0.72056   0.36383   0.01267  Uiso   1.00
Cd416  Cd    0.63967   0.70391   0.57288   0.01267  Uiso   1.00
Cd417  Cd    0.95866   0.52982   0.33779   0.01267  Uiso   1.00
