data_ ABW
_chemical_name_common		'ABW'
_cell_length_a		14.21244332
_cell_length_b		14.21244332
_cell_length_c		14.21244332
_cell_angle_alpha		91.997677
_cell_angle_beta		136.608720
_cell_angle_gamma		103.795773
_space group_name_H-M_alt		'P 1'
_space_group_IT_number		1

loop_
	_atom_site_label
	_atom_site_type_symbol
	_atom_site_fract_x
	_atom_site_fract_y
	_atom_site_fract_z
	O1	O	-1.988500000000E-01	-7.385000000000E-02	-1.250000000000E-01
	O2	O	1.988500000000E-01	7.385000000000E-02	1.250000000000E-01
	O3	O	2.500000000000E-01	-9.500000000000E-02	-3.450000000000E-01
	O4	O	-4.251217707100E-17	9.500000000000E-02	9.500000000000E-02
	O5	O	2.500000000000E-01	9.500000000000E-02	-1.550000000000E-01
	O6	O	7.807031977857E-18	-9.500000000000E-02	-9.500000000000E-02
	O7	O	2.500000000000E-01	2.500000000000E-01	2.500000000000E-01
	O8	O	2.500000000000E-01	-2.775557561563E-17	-2.775557561563E-17
	Si9	Si	-1.746500000000E-01	-1.282500000000E-01	-2.036000000000E-01
	Si10	Si	-1.746500000000E-01	2.895000000000E-02	-4.640000000000E-02
	Si11	Si	1.746500000000E-01	-2.895000000000E-02	4.640000000000E-02
	Si12	Si	1.746500000000E-01	1.282500000000E-01	2.036000000000E-01
	O13	O	-3.011500000000E-01	7.385000000000E-02	1.250000000000E-01
	O14	O	-3.011500000000E-01	7.385000000000E-02	-3.750000000000E-01
	O15	O	-3.011500000000E-01	-4.261500000000E-01	1.250000000000E-01
	O16	O	-3.011500000000E-01	-4.261500000000E-01	-3.750000000000E-01
	O17	O	-1.988500000000E-01	4.261500000000E-01	-1.250000000000E-01
	O18	O	2.500000000000E-01	-9.500000000000E-02	1.550000000000E-01
	O19	O	2.500000000000E-01	4.050000000000E-01	-3.450000000000E-01
	O20	O	2.500000000000E-01	4.050000000000E-01	1.550000000000E-01
	O21	O	-2.500000000000E-01	-9.500000000000E-02	-3.450000000000E-01
	O22	O	-2.500000000000E-01	-9.500000000000E-02	1.550000000000E-01
	O23	O	-2.500000000000E-01	4.050000000000E-01	-3.450000000000E-01
	O24	O	-2.500000000000E-01	4.050000000000E-01	1.550000000000E-01
	O25	O	-1.988500000000E-01	4.261500000000E-01	3.750000000000E-01
	O26	O	-5.551115123126E-17	9.500000000000E-02	-4.050000000000E-01
	O27	O	5.551115123126E-17	-4.050000000000E-01	9.500000000000E-02
	O28	O	-4.472818582120E-17	-4.050000000000E-01	-4.050000000000E-01
	O29	O	-5.000000000000E-01	9.500000000000E-02	9.500000000000E-02
	O30	O	-5.000000000000E-01	9.500000000000E-02	-4.050000000000E-01
	O31	O	-5.000000000000E-01	-4.050000000000E-01	9.500000000000E-02
	O32	O	-5.000000000000E-01	-4.050000000000E-01	-4.050000000000E-01
	O33	O	3.011500000000E-01	-7.385000000000E-02	-1.250000000000E-01
	O34	O	2.500000000000E-01	9.500000000000E-02	3.450000000000E-01
	O35	O	2.500000000000E-01	-4.050000000000E-01	-1.550000000000E-01
	O36	O	2.500000000000E-01	-4.050000000000E-01	3.450000000000E-01
	O37	O	-2.500000000000E-01	9.500000000000E-02	-1.550000000000E-01
	O38	O	-2.500000000000E-01	9.500000000000E-02	3.450000000000E-01
	O39	O	-2.500000000000E-01	-4.050000000000E-01	-1.550000000000E-01
	O40	O	-2.500000000000E-01	-4.050000000000E-01	3.450000000000E-01
	O41	O	3.011500000000E-01	-7.385000000000E-02	3.750000000000E-01
	O42	O	5.551115123126E-17	-9.500000000000E-02	4.050000000000E-01
	O43	O	-5.551115123126E-17	4.050000000000E-01	-9.500000000000E-02
	O44	O	0.000000000000E+00	4.050000000000E-01	4.050000000000E-01
	O45	O	-5.000000000000E-01	-9.500000000000E-02	-9.500000000000E-02
	O46	O	5.000000000000E-01	-9.500000000000E-02	4.050000000000E-01
	O47	O	-5.000000000000E-01	4.050000000000E-01	-9.500000000000E-02
	O48	O	-5.000000000000E-01	4.050000000000E-01	4.050000000000E-01
	O49	O	3.011500000000E-01	4.261500000000E-01	-1.250000000000E-01
	O50	O	2.500000000000E-01	2.500000000000E-01	-2.500000000000E-01
	O51	O	2.500000000000E-01	-2.500000000000E-01	2.500000000000E-01
	O52	O	2.500000000000E-01	-2.500000000000E-01	-2.500000000000E-01
	O53	O	-2.500000000000E-01	2.500000000000E-01	2.500000000000E-01
	O54	O	-2.500000000000E-01	2.500000000000E-01	-2.500000000000E-01
	O55	O	-2.500000000000E-01	-2.500000000000E-01	2.500000000000E-01
	O56	O	-2.500000000000E-01	-2.500000000000E-01	-2.500000000000E-01
	O57	O	3.011500000000E-01	4.261500000000E-01	3.750000000000E-01
	O58	O	2.500000000000E-01	9.714451465470E-17	-5.000000000000E-01
	O59	O	2.500000000000E-01	-5.000000000000E-01	-5.551115123126E-17
	O60	O	2.500000000000E-01	5.000000000000E-01	5.000000000000E-01
	O61	O	-2.500000000000E-01	0.000000000000E+00	-4.163336342344E-17
	O62	O	-2.500000000000E-01	-5.551115123126E-17	-5.000000000000E-01
	O63	O	-2.500000000000E-01	5.000000000000E-01	-5.551115123126E-17
	O64	O	-2.500000000000E-01	-5.000000000000E-01	-5.000000000000E-01
	O65	O	-1.988500000000E-01	-7.385000000000E-02	3.750000000000E-01
	Si66	Si	-1.746500000000E-01	-1.282500000000E-01	2.964000000000E-01
	Si67	Si	-1.746500000000E-01	3.717500000000E-01	-2.036000000000E-01
	Si68	Si	-1.746500000000E-01	3.717500000000E-01	2.964000000000E-01
	Si69	Si	3.253500000000E-01	-1.282500000000E-01	-2.036000000000E-01
	Si70	Si	3.253500000000E-01	-1.282500000000E-01	2.964000000000E-01
	Si71	Si	3.253500000000E-01	3.717500000000E-01	-2.036000000000E-01
	Si72	Si	3.253500000000E-01	3.717500000000E-01	2.964000000000E-01
	O73	O	1.988500000000E-01	7.385000000000E-02	-3.750000000000E-01
	Si74	Si	-1.746500000000E-01	2.895000000000E-02	4.536000000000E-01
	Si75	Si	-1.746500000000E-01	-4.710500000000E-01	-4.640000000000E-02
	Si76	Si	-1.746500000000E-01	-4.710500000000E-01	4.536000000000E-01
	Si77	Si	3.253500000000E-01	2.895000000000E-02	-4.640000000000E-02
	Si78	Si	3.253500000000E-01	2.895000000000E-02	4.536000000000E-01
	Si79	Si	3.253500000000E-01	-4.710500000000E-01	-4.640000000000E-02
	Si80	Si	3.253500000000E-01	-4.710500000000E-01	4.536000000000E-01
	O81	O	1.988500000000E-01	-4.261500000000E-01	1.250000000000E-01
	Si82	Si	1.746500000000E-01	-2.895000000000E-02	-4.536000000000E-01
	Si83	Si	1.746500000000E-01	4.710500000000E-01	4.640000000000E-02
	Si84	Si	1.746500000000E-01	4.710500000000E-01	-4.536000000000E-01
	Si85	Si	-3.253500000000E-01	-2.895000000000E-02	4.640000000000E-02
	Si86	Si	-3.253500000000E-01	-2.895000000000E-02	-4.536000000000E-01
	Si87	Si	-3.253500000000E-01	4.710500000000E-01	4.640000000000E-02
	Si88	Si	-3.253500000000E-01	4.710500000000E-01	-4.536000000000E-01
	O89	O	1.988500000000E-01	-4.261500000000E-01	-3.750000000000E-01
	Si90	Si	1.746500000000E-01	1.282500000000E-01	-2.964000000000E-01
	Si91	Si	1.746500000000E-01	-3.717500000000E-01	2.036000000000E-01
	Si92	Si	1.746500000000E-01	-3.717500000000E-01	-2.964000000000E-01
	Si93	Si	-3.253500000000E-01	1.282500000000E-01	2.036000000000E-01
	Si94	Si	-3.253500000000E-01	1.282500000000E-01	-2.964000000000E-01
	Si95	Si	-3.253500000000E-01	-3.717500000000E-01	2.036000000000E-01
	Si96	Si	-3.253500000000E-01	-3.717500000000E-01	-2.964000000000E-01


data_ ACO
_chemical_name_common		'ACO'
_cell_length_a		17.15596325
_cell_length_b		17.15596325
_cell_length_c		8.57798162
_cell_angle_alpha		109.471221
_cell_angle_beta		109.471221
_cell_angle_gamma		109.471221
_space group_name_H-M_alt		'P 1'
_space_group_IT_number		1

loop_
	_atom_site_label
	_atom_site_type_symbol
	_atom_site_fract_x
	_atom_site_fract_y
	_atom_site_fract_z
	O1	O	2.500000000000E-01	2.500000000000E-01	-5.000000000000E-01
	O2	O	0.000000000000E+00	1.110223024625E-16	-5.000000000000E-01
	O3	O	2.500000000000E-01	-2.775557561563E-17	-5.551115123126E-17
	O4	O	0.000000000000E+00	2.500000000000E-01	1.942890293094E-16
	O5	O	9.385000000000E-02	9.385000000000E-02	3.754000000000E-01
	O6	O	-9.385000000000E-02	-9.385000000000E-02	-3.754000000000E-01
	O7	O	-9.385000000000E-02	9.385000000000E-02	0.000000000000E+00
	O8	O	9.385000000000E-02	-9.385000000000E-02	0.000000000000E+00
	O9	O	1.877000000000E-01	9.385000000000E-02	1.877000000000E-01
	O10	O	9.385000000000E-02	1.877000000000E-01	1.877000000000E-01
	O11	O	0.000000000000E+00	9.385000000000E-02	-1.877000000000E-01
	O12	O	-9.385000000000E-02	-1.877000000000E-01	-1.877000000000E-01
	O13	O	-1.877000000000E-01	-9.385000000000E-02	-1.877000000000E-01
	O14	O	9.385000000000E-02	0.000000000000E+00	-1.877000000000E-01
	O15	O	0.000000000000E+00	-9.385000000000E-02	1.877000000000E-01
	O16	O	-9.385000000000E-02	0.000000000000E+00	1.877000000000E-01
	Si17	Si	1.564000000000E-01	1.564000000000E-01	3.128000000000E-01
	Si18	Si	0.000000000000E+00	-4.163336342344E-17	-3.128000000000E-01
	Si19	Si	-1.564000000000E-01	4.163336342344E-17	8.326672684689E-17
	Si20	Si	0.000000000000E+00	-1.564000000000E-01	-8.326672684689E-17
	Si21	Si	-1.564000000000E-01	-1.564000000000E-01	-3.128000000000E-01
	Si22	Si	1.387778780781E-17	0.000000000000E+00	3.128000000000E-01
	Si23	Si	-1.387778780781E-17	1.564000000000E-01	-1.110223024625E-16
	Si24	Si	1.564000000000E-01	0.000000000000E+00	1.110223024625E-16
	O25	O	-5.000000000000E-01	1.110223024625E-16	-5.000000000000E-01
	O26	O	-9.385000000000E-02	-4.061500000000E-01	0.000000000000E+00
	O27	O	4.061500000000E-01	9.385000000000E-02	0.000000000000E+00
	O28	O	4.061500000000E-01	-4.061500000000E-01	0.000000000000E+00
	O29	O	-5.000000000000E-01	-5.000000000000E-01	-5.000000000000E-01
	O30	O	9.385000000000E-02	4.061500000000E-01	0.000000000000E+00
	O31	O	-4.061500000000E-01	-9.385000000000E-02	0.000000000000E+00
	O32	O	-4.061500000000E-01	4.061500000000E-01	0.000000000000E+00
	O33	O	-2.500000000000E-01	2.500000000000E-01	-5.000000000000E-01
	O34	O	1.877000000000E-01	-4.061500000000E-01	1.877000000000E-01
	O35	O	-3.123000000000E-01	9.385000000000E-02	1.877000000000E-01
	O36	O	-3.123000000000E-01	-4.061500000000E-01	1.877000000000E-01
	O37	O	2.500000000000E-01	-5.000000000000E-01	-1.665334536938E-16
	O38	O	9.385000000000E-02	-3.123000000000E-01	1.877000000000E-01
	O39	O	-4.061500000000E-01	1.877000000000E-01	1.877000000000E-01
	O40	O	-4.061500000000E-01	-3.123000000000E-01	1.877000000000E-01
	O41	O	-2.500000000000E-01	-9.714451465470E-17	-1.942890293094E-16
	O42	O	0.000000000000E+00	-4.061500000000E-01	-1.877000000000E-01
	O43	O	-5.000000000000E-01	9.385000000000E-02	-1.877000000000E-01
	O44	O	-5.000000000000E-01	-4.061500000000E-01	-1.877000000000E-01
	O45	O	-2.500000000000E-01	5.000000000000E-01	-4.440892098501E-16
	O46	O	-9.385000000000E-02	3.123000000000E-01	-1.877000000000E-01
	O47	O	4.061500000000E-01	-1.877000000000E-01	-1.877000000000E-01
	O48	O	4.061500000000E-01	3.123000000000E-01	-1.877000000000E-01
	O49	O	-2.500000000000E-01	-2.500000000000E-01	-5.000000000000E-01
	O50	O	-1.877000000000E-01	4.061500000000E-01	-1.877000000000E-01
	O51	O	3.123000000000E-01	-9.385000000000E-02	-1.877000000000E-01
	O52	O	3.123000000000E-01	4.061500000000E-01	-1.877000000000E-01
	O53	O	0.000000000000E+00	-2.500000000000E-01	1.110223024625E-16
	O54	O	9.385000000000E-02	-5.000000000000E-01	-1.877000000000E-01
	O55	O	-4.061500000000E-01	0.000000000000E+00	-1.877000000000E-01
	O56	O	-4.061500000000E-01	-5.000000000000E-01	-1.877000000000E-01
	O57	O	-5.000000000000E-01	2.500000000000E-01	1.665334536938E-16
	O58	O	0.000000000000E+00	4.061500000000E-01	1.877000000000E-01
	O59	O	-5.000000000000E-01	-9.385000000000E-02	1.877000000000E-01
	O60	O	-5.000000000000E-01	4.061500000000E-01	1.877000000000E-01
	O61	O	-5.000000000000E-01	-2.500000000000E-01	2.220446049250E-16
	O62	O	-9.385000000000E-02	-5.000000000000E-01	1.877000000000E-01
	O63	O	4.061500000000E-01	0.000000000000E+00	1.877000000000E-01
	O64	O	4.061500000000E-01	-5.000000000000E-01	1.877000000000E-01
	O65	O	2.500000000000E-01	-2.500000000000E-01	-5.000000000000E-01
	Si66	Si	1.564000000000E-01	-3.436000000000E-01	3.128000000000E-01
	Si67	Si	-3.436000000000E-01	1.564000000000E-01	3.128000000000E-01
	Si68	Si	-3.436000000000E-01	-3.436000000000E-01	3.128000000000E-01
	O69	O	9.385000000000E-02	-4.061500000000E-01	3.754000000000E-01
	Si70	Si	0.000000000000E+00	-5.000000000000E-01	-3.128000000000E-01
	Si71	Si	-5.000000000000E-01	-1.110223024625E-16	-3.128000000000E-01
	Si72	Si	-5.000000000000E-01	5.000000000000E-01	-3.128000000000E-01
	O73	O	-4.061500000000E-01	9.385000000000E-02	3.754000000000E-01
	Si74	Si	-1.564000000000E-01	-5.000000000000E-01	0.000000000000E+00
	Si75	Si	3.436000000000E-01	5.551115123126E-17	1.110223024625E-16
	Si76	Si	3.436000000000E-01	-5.000000000000E-01	0.000000000000E+00
	O77	O	-4.061500000000E-01	-4.061500000000E-01	3.754000000000E-01
	Si78	Si	0.000000000000E+00	3.436000000000E-01	-1.110223024625E-16
	Si79	Si	-5.000000000000E-01	-1.564000000000E-01	-2.220446049250E-16
	Si80	Si	-5.000000000000E-01	3.436000000000E-01	0.000000000000E+00
	O81	O	0.000000000000E+00	-5.000000000000E-01	-5.000000000000E-01
	Si82	Si	-1.564000000000E-01	3.436000000000E-01	-3.128000000000E-01
	Si83	Si	3.436000000000E-01	-1.564000000000E-01	-3.128000000000E-01
	Si84	Si	3.436000000000E-01	3.436000000000E-01	-3.128000000000E-01
	O85	O	-9.385000000000E-02	4.061500000000E-01	-3.754000000000E-01
	Si86	Si	0.000000000000E+00	-5.000000000000E-01	3.128000000000E-01
	Si87	Si	-5.000000000000E-01	0.000000000000E+00	3.128000000000E-01
	Si88	Si	-5.000000000000E-01	-5.000000000000E-01	3.128000000000E-01
	O89	O	4.061500000000E-01	-9.385000000000E-02	-3.754000000000E-01
	Si90	Si	-5.551115123126E-17	-3.436000000000E-01	-1.110223024625E-16
	Si91	Si	-5.000000000000E-01	1.564000000000E-01	-1.665334536938E-16
	Si92	Si	-5.000000000000E-01	-3.436000000000E-01	0.000000000000E+00
	O93	O	4.061500000000E-01	4.061500000000E-01	-3.754000000000E-01
	Si94	Si	1.564000000000E-01	-5.000000000000E-01	0.000000000000E+00
	Si95	Si	-3.436000000000E-01	0.000000000000E+00	5.551115123126E-17
	Si96	Si	-3.436000000000E-01	5.000000000000E-01	0.000000000000E+00


data_ AEI
_chemical_name_common		'AEI'
_cell_length_a		9.30049431
_cell_length_b		9.30049431
_cell_length_c		18.49700000
_cell_angle_alpha		90.000000
_cell_angle_beta		90.000000
_cell_angle_gamma		94.662354
_space group_name_H-M_alt		'P 1'
_space_group_IT_number		1

loop_
	_atom_site_label
	_atom_site_type_symbol
	_atom_site_fract_x
	_atom_site_fract_y
	_atom_site_fract_z
	O1	O	4.000000000000E-04	4.000000000000E-04	1.614000000000E-01
	O2	O	-4.000000000000E-04	-4.000000000000E-04	-3.386000000000E-01
	O3	O	-4.000000000000E-04	-4.000000000000E-04	-1.614000000000E-01
	O4	O	4.000000000000E-04	4.000000000000E-04	3.386000000000E-01
	O5	O	1.887000000000E-01	-1.011000000000E-01	2.500000000000E-01
	O6	O	-1.887000000000E-01	1.011000000000E-01	-2.500000000000E-01
	O7	O	1.011000000000E-01	-1.887000000000E-01	-2.500000000000E-01
	O8	O	-1.011000000000E-01	1.887000000000E-01	2.500000000000E-01
	O9	O	2.767000000000E-01	2.630000000000E-02	1.293000000000E-01
	O10	O	-2.767000000000E-01	-2.630000000000E-02	-3.707000000000E-01
	O11	O	-2.630000000000E-02	-2.767000000000E-01	-1.293000000000E-01
	O12	O	2.630000000000E-02	2.767000000000E-01	3.707000000000E-01
	O13	O	-2.767000000000E-01	-2.630000000000E-02	-1.293000000000E-01
	O14	O	2.767000000000E-01	2.630000000000E-02	3.707000000000E-01
	O15	O	2.630000000000E-02	2.767000000000E-01	1.293000000000E-01
	O16	O	-2.630000000000E-02	-2.767000000000E-01	-3.707000000000E-01
	O17	O	1.321000000000E-01	-2.287000000000E-01	1.253000000000E-01
	O18	O	-1.321000000000E-01	2.287000000000E-01	-3.747000000000E-01
	O19	O	2.287000000000E-01	-1.321000000000E-01	-1.253000000000E-01
	O20	O	-2.287000000000E-01	1.321000000000E-01	3.747000000000E-01
	O21	O	-1.321000000000E-01	2.287000000000E-01	-1.253000000000E-01
	O22	O	1.321000000000E-01	-2.287000000000E-01	3.747000000000E-01
	O23	O	-2.287000000000E-01	1.321000000000E-01	1.253000000000E-01
	O24	O	2.287000000000E-01	-1.321000000000E-01	-3.747000000000E-01
	O25	O	-2.130000000000E-02	-3.143000000000E-01	1.160000000000E-02
	O26	O	2.130000000000E-02	3.143000000000E-01	-4.884000000000E-01
	O27	O	3.143000000000E-01	2.130000000000E-02	-1.160000000000E-02
	O28	O	-3.143000000000E-01	-2.130000000000E-02	4.884000000000E-01
	O29	O	2.130000000000E-02	3.143000000000E-01	-1.160000000000E-02
	O30	O	-2.130000000000E-02	-3.143000000000E-01	4.884000000000E-01
	O31	O	-3.143000000000E-01	-2.130000000000E-02	1.160000000000E-02
	O32	O	3.143000000000E-01	2.130000000000E-02	-4.884000000000E-01
	O33	O	-2.636000000000E-01	-2.636000000000E-01	-5.320000000000E-02
	O34	O	2.636000000000E-01	2.636000000000E-01	4.468000000000E-01
	O35	O	2.636000000000E-01	2.636000000000E-01	5.320000000000E-02
	O36	O	-2.636000000000E-01	-2.636000000000E-01	-4.468000000000E-01
	O37	O	-1.534000000000E-01	4.878000000000E-01	-7.190000000000E-02
	O38	O	1.534000000000E-01	-4.878000000000E-01	4.281000000000E-01
	O39	O	-4.878000000000E-01	1.534000000000E-01	7.190000000000E-02
	O40	O	4.878000000000E-01	-1.534000000000E-01	-4.281000000000E-01
	O41	O	1.534000000000E-01	-4.878000000000E-01	7.190000000000E-02
	O42	O	-1.534000000000E-01	4.878000000000E-01	-4.281000000000E-01
	O43	O	4.878000000000E-01	-1.534000000000E-01	-7.190000000000E-02
	O44	O	-4.878000000000E-01	1.534000000000E-01	4.281000000000E-01
	O45	O	-2.596000000000E-01	2.596000000000E-01	0.000000000000E+00
	O46	O	2.596000000000E-01	-2.596000000000E-01	-5.000000000000E-01
	O47	O	2.596000000000E-01	-2.596000000000E-01	0.000000000000E+00
	O48	O	-2.596000000000E-01	2.596000000000E-01	-5.000000000000E-01
	Si49	Si	1.495000000000E-01	-7.570000000000E-02	1.664000000000E-01
	Si50	Si	-1.495000000000E-01	7.570000000000E-02	-3.336000000000E-01
	Si51	Si	7.570000000000E-02	-1.495000000000E-01	-1.664000000000E-01
	Si52	Si	-7.570000000000E-02	1.495000000000E-01	3.336000000000E-01
	Si53	Si	-1.495000000000E-01	7.570000000000E-02	-1.664000000000E-01
	Si54	Si	1.495000000000E-01	-7.570000000000E-02	3.336000000000E-01
	Si55	Si	-7.570000000000E-02	1.495000000000E-01	1.664000000000E-01
	Si56	Si	7.570000000000E-02	-1.495000000000E-01	-3.336000000000E-01
	Si57	Si	-1.161000000000E-01	-3.417000000000E-01	-6.060000000000E-02
	Si58	Si	1.161000000000E-01	3.417000000000E-01	4.394000000000E-01
	Si59	Si	3.417000000000E-01	1.161000000000E-01	6.060000000000E-02
	Si60	Si	-3.417000000000E-01	-1.161000000000E-01	-4.394000000000E-01
	Si61	Si	1.161000000000E-01	3.417000000000E-01	6.060000000000E-02
	Si62	Si	-1.161000000000E-01	-3.417000000000E-01	-4.394000000000E-01
	Si63	Si	-3.417000000000E-01	-1.161000000000E-01	-6.060000000000E-02
	Si64	Si	3.417000000000E-01	1.161000000000E-01	4.394000000000E-01
	Si65	Si	-3.225000000000E-01	1.309000000000E-01	5.210000000000E-02
	Si66	Si	3.225000000000E-01	-1.309000000000E-01	-4.479000000000E-01
	Si67	Si	-1.309000000000E-01	3.225000000000E-01	-5.210000000000E-02
	Si68	Si	1.309000000000E-01	-3.225000000000E-01	4.479000000000E-01
	Si69	Si	3.225000000000E-01	-1.309000000000E-01	-5.210000000000E-02
	Si70	Si	-3.225000000000E-01	1.309000000000E-01	4.479000000000E-01
	Si71	Si	1.309000000000E-01	-3.225000000000E-01	5.210000000000E-02
	Si72	Si	-1.309000000000E-01	3.225000000000E-01	-4.479000000000E-01


data_ AFG
_chemical_name_common		'AFG'
_cell_length_a		12.54800000
_cell_length_b		12.54800000
_cell_length_c		20.78900000
_cell_angle_alpha		90.000000
_cell_angle_beta		90.000000
_cell_angle_gamma		120.000000
_space group_name_H-M_alt		'P 1'
_space_group_IT_number		1

loop_
	_atom_site_label
	_atom_site_type_symbol
	_atom_site_fract_x
	_atom_site_fract_y
	_atom_site_fract_z
	O1	O	-3.392000000000E-01	-3.047000000000E-01	6.060000000000E-02
	O2	O	3.392000000000E-01	3.047000000000E-01	-4.394000000000E-01
	O3	O	3.047000000000E-01	-3.450000000000E-02	6.060000000000E-02
	O4	O	3.450000000000E-02	3.392000000000E-01	6.060000000000E-02
	O5	O	-3.450000000000E-02	-3.392000000000E-01	-4.394000000000E-01
	O6	O	-3.047000000000E-01	3.450000000000E-02	-4.394000000000E-01
	O7	O	-3.450000000000E-02	3.047000000000E-01	-6.060000000000E-02
	O8	O	3.392000000000E-01	3.450000000000E-02	-6.060000000000E-02
	O9	O	-3.047000000000E-01	-3.392000000000E-01	-6.060000000000E-02
	O10	O	3.047000000000E-01	3.392000000000E-01	4.394000000000E-01
	O11	O	-3.392000000000E-01	-3.450000000000E-02	4.394000000000E-01
	O12	O	3.450000000000E-02	-3.047000000000E-01	4.394000000000E-01
	O13	O	3.392000000000E-01	3.047000000000E-01	-6.060000000000E-02
	O14	O	-3.392000000000E-01	-3.047000000000E-01	4.394000000000E-01
	O15	O	-3.047000000000E-01	3.450000000000E-02	-6.060000000000E-02
	O16	O	-3.450000000000E-02	-3.392000000000E-01	-6.060000000000E-02
	O17	O	3.450000000000E-02	3.392000000000E-01	4.394000000000E-01
	O18	O	3.047000000000E-01	-3.450000000000E-02	4.394000000000E-01
	O19	O	3.450000000000E-02	-3.047000000000E-01	6.060000000000E-02
	O20	O	-3.392000000000E-01	-3.450000000000E-02	6.060000000000E-02
	O21	O	3.047000000000E-01	3.392000000000E-01	6.060000000000E-02
	O22	O	-3.047000000000E-01	-3.392000000000E-01	-4.394000000000E-01
	O23	O	3.392000000000E-01	3.450000000000E-02	-4.394000000000E-01
	O24	O	-3.450000000000E-02	3.047000000000E-01	-4.394000000000E-01
	O25	O	-3.320000000000E-01	-3.088000000000E-01	1.868000000000E-01
	O26	O	3.320000000000E-01	3.088000000000E-01	-3.132000000000E-01
	O27	O	3.088000000000E-01	-2.320000000000E-02	1.868000000000E-01
	O28	O	2.320000000000E-02	3.320000000000E-01	1.868000000000E-01
	O29	O	-2.320000000000E-02	-3.320000000000E-01	-3.132000000000E-01
	O30	O	-3.088000000000E-01	2.320000000000E-02	-3.132000000000E-01
	O31	O	-2.320000000000E-02	3.088000000000E-01	-1.868000000000E-01
	O32	O	3.320000000000E-01	2.320000000000E-02	-1.868000000000E-01
	O33	O	-3.088000000000E-01	-3.320000000000E-01	-1.868000000000E-01
	O34	O	3.088000000000E-01	3.320000000000E-01	3.132000000000E-01
	O35	O	-3.320000000000E-01	-2.320000000000E-02	3.132000000000E-01
	O36	O	2.320000000000E-02	-3.088000000000E-01	3.132000000000E-01
	O37	O	3.320000000000E-01	3.088000000000E-01	-1.868000000000E-01
	O38	O	-3.320000000000E-01	-3.088000000000E-01	3.132000000000E-01
	O39	O	-3.088000000000E-01	2.320000000000E-02	-1.868000000000E-01
	O40	O	-2.320000000000E-02	-3.320000000000E-01	-1.868000000000E-01
	O41	O	2.320000000000E-02	3.320000000000E-01	3.132000000000E-01
	O42	O	3.088000000000E-01	-2.320000000000E-02	3.132000000000E-01
	O43	O	2.320000000000E-02	-3.088000000000E-01	1.868000000000E-01
	O44	O	-3.320000000000E-01	-2.320000000000E-02	1.868000000000E-01
	O45	O	3.088000000000E-01	3.320000000000E-01	1.868000000000E-01
	O46	O	-3.088000000000E-01	-3.320000000000E-01	-3.132000000000E-01
	O47	O	3.320000000000E-01	2.320000000000E-02	-3.132000000000E-01
	O48	O	-2.320000000000E-02	3.088000000000E-01	-3.132000000000E-01
	O49	O	2.348500000000E-01	4.697000000000E-01	1.288000000000E-01
	O50	O	-2.348500000000E-01	-4.697000000000E-01	-3.712000000000E-01
	O51	O	-4.697000000000E-01	-2.348500000000E-01	1.288000000000E-01
	O52	O	2.348500000000E-01	-2.348500000000E-01	1.288000000000E-01
	O53	O	-2.348500000000E-01	2.348500000000E-01	-3.712000000000E-01
	O54	O	4.697000000000E-01	2.348500000000E-01	-3.712000000000E-01
	O55	O	-2.348500000000E-01	-4.697000000000E-01	-1.288000000000E-01
	O56	O	-2.348500000000E-01	2.348500000000E-01	-1.288000000000E-01
	O57	O	4.697000000000E-01	2.348500000000E-01	-1.288000000000E-01
	O58	O	-4.697000000000E-01	-2.348500000000E-01	3.712000000000E-01
	O59	O	2.348500000000E-01	-2.348500000000E-01	3.712000000000E-01
	O60	O	2.348500000000E-01	4.697000000000E-01	3.712000000000E-01
	O61	O	-4.685500000000E-01	6.290000000000E-02	-3.747000000000E-01
	O62	O	4.685500000000E-01	-6.290000000000E-02	1.253000000000E-01
	O63	O	-6.290000000000E-02	4.685500000000E-01	-3.747000000000E-01
	O64	O	-4.685500000000E-01	4.685500000000E-01	-3.747000000000E-01
	O65	O	4.685500000000E-01	-4.685500000000E-01	1.253000000000E-01
	O66	O	6.290000000000E-02	-4.685500000000E-01	1.253000000000E-01
	O67	O	4.685500000000E-01	-6.290000000000E-02	3.747000000000E-01
	O68	O	4.685500000000E-01	-4.685500000000E-01	3.747000000000E-01
	O69	O	6.290000000000E-02	-4.685500000000E-01	3.747000000000E-01
	O70	O	-6.290000000000E-02	4.685500000000E-01	-1.253000000000E-01
	O71	O	-4.685500000000E-01	4.685500000000E-01	-1.253000000000E-01
	O72	O	-4.685500000000E-01	6.290000000000E-02	-1.253000000000E-01
	O73	O	1.013000000000E-01	2.026000000000E-01	2.500000000000E-01
	O74	O	-1.013000000000E-01	-2.026000000000E-01	-2.500000000000E-01
	O75	O	-2.026000000000E-01	-1.013000000000E-01	2.500000000000E-01
	O76	O	1.013000000000E-01	-1.013000000000E-01	2.500000000000E-01
	O77	O	-1.013000000000E-01	1.013000000000E-01	-2.500000000000E-01
	O78	O	2.026000000000E-01	1.013000000000E-01	-2.500000000000E-01
	O79	O	-1.342000000000E-01	-2.684000000000E-01	2.500000000000E-01
	O80	O	1.342000000000E-01	2.684000000000E-01	-2.500000000000E-01
	O81	O	2.684000000000E-01	1.342000000000E-01	2.500000000000E-01
	O82	O	-1.342000000000E-01	1.342000000000E-01	2.500000000000E-01
	O83	O	1.342000000000E-01	-1.342000000000E-01	-2.500000000000E-01
	O84	O	-2.684000000000E-01	-1.342000000000E-01	-2.500000000000E-01
	O85	O	-1.158500000000E-01	-2.317000000000E-01	4.819000000000E-01
	O86	O	1.158500000000E-01	2.317000000000E-01	-1.810000000000E-02
	O87	O	2.317000000000E-01	1.158500000000E-01	4.819000000000E-01
	O88	O	-1.158500000000E-01	1.158500000000E-01	4.819000000000E-01
	O89	O	1.158500000000E-01	-1.158500000000E-01	-1.810000000000E-02
	O90	O	-2.317000000000E-01	-1.158500000000E-01	-1.810000000000E-02
	O91	O	1.158500000000E-01	2.317000000000E-01	-4.819000000000E-01
	O92	O	1.158500000000E-01	-1.158500000000E-01	-4.819000000000E-01
	O93	O	-2.317000000000E-01	-1.158500000000E-01	-4.819000000000E-01
	O94	O	2.317000000000E-01	1.158500000000E-01	1.810000000000E-02
	O95	O	-1.158500000000E-01	1.158500000000E-01	1.810000000000E-02
	O96	O	-1.158500000000E-01	-2.317000000000E-01	1.810000000000E-02
	Si97	Si	-4.183000000000E-01	-3.294000000000E-01	1.254000000000E-01
	Si98	Si	4.183000000000E-01	3.294000000000E-01	-3.746000000000E-01
	Si99	Si	3.294000000000E-01	-8.890000000000E-02	1.254000000000E-01
	Si100	Si	8.890000000000E-02	4.183000000000E-01	1.254000000000E-01
	Si101	Si	-8.890000000000E-02	-4.183000000000E-01	-3.746000000000E-01
	Si102	Si	-3.294000000000E-01	8.890000000000E-02	-3.746000000000E-01
	Si103	Si	-8.890000000000E-02	3.294000000000E-01	-1.254000000000E-01
	Si104	Si	4.183000000000E-01	8.890000000000E-02	-1.254000000000E-01
	Si105	Si	-3.294000000000E-01	-4.183000000000E-01	-1.254000000000E-01
	Si106	Si	3.294000000000E-01	4.183000000000E-01	3.746000000000E-01
	Si107	Si	-4.183000000000E-01	-8.890000000000E-02	3.746000000000E-01
	Si108	Si	8.890000000000E-02	-3.294000000000E-01	3.746000000000E-01
	Si109	Si	4.183000000000E-01	3.294000000000E-01	-1.254000000000E-01
	Si110	Si	-4.183000000000E-01	-3.294000000000E-01	3.746000000000E-01
	Si111	Si	-3.294000000000E-01	8.890000000000E-02	-1.254000000000E-01
	Si112	Si	-8.890000000000E-02	-4.183000000000E-01	-1.254000000000E-01
	Si113	Si	8.890000000000E-02	4.183000000000E-01	3.746000000000E-01
	Si114	Si	3.294000000000E-01	-8.890000000000E-02	3.746000000000E-01
	Si115	Si	8.890000000000E-02	-3.294000000000E-01	1.254000000000E-01
	Si116	Si	-4.183000000000E-01	-8.890000000000E-02	1.254000000000E-01
	Si117	Si	3.294000000000E-01	4.183000000000E-01	1.254000000000E-01
	Si118	Si	-3.294000000000E-01	-4.183000000000E-01	-3.746000000000E-01
	Si119	Si	4.183000000000E-01	8.890000000000E-02	-3.746000000000E-01
	Si120	Si	-8.890000000000E-02	3.294000000000E-01	-3.746000000000E-01
	Si121	Si	2.466000000000E-01	-3.500000000000E-03	2.500000000000E-01
	Si122	Si	-2.466000000000E-01	3.500000000000E-03	-2.500000000000E-01
	Si123	Si	3.500000000000E-03	2.501000000000E-01	2.500000000000E-01
	Si124	Si	-2.501000000000E-01	-2.466000000000E-01	2.500000000000E-01
	Si125	Si	2.501000000000E-01	2.466000000000E-01	-2.500000000000E-01
	Si126	Si	-3.500000000000E-03	-2.501000000000E-01	-2.500000000000E-01
	Si127	Si	2.501000000000E-01	3.500000000000E-03	-2.500000000000E-01
	Si128	Si	-2.466000000000E-01	-2.501000000000E-01	-2.500000000000E-01
	Si129	Si	-3.500000000000E-03	2.466000000000E-01	-2.500000000000E-01
	Si130	Si	3.500000000000E-03	-2.466000000000E-01	2.500000000000E-01
	Si131	Si	2.466000000000E-01	2.501000000000E-01	2.500000000000E-01
	Si132	Si	-2.501000000000E-01	-3.500000000000E-03	2.500000000000E-01
	Si133	Si	2.478000000000E-01	-5.551115123126E-17	0.000000000000E+00
	Si134	Si	-2.478000000000E-01	5.551115123126E-17	5.000000000000E-01
	Si135	Si	0.000000000000E+00	2.478000000000E-01	0.000000000000E+00
	Si136	Si	-2.478000000000E-01	-2.478000000000E-01	0.000000000000E+00
	Si137	Si	2.478000000000E-01	2.478000000000E-01	5.000000000000E-01
	Si138	Si	0.000000000000E+00	-2.478000000000E-01	5.000000000000E-01
	Si139	Si	-2.478000000000E-01	5.551115123126E-17	0.000000000000E+00
	Si140	Si	2.478000000000E-01	-5.551115123126E-17	5.000000000000E-01
	Si141	Si	0.000000000000E+00	-2.478000000000E-01	0.000000000000E+00
	Si142	Si	2.478000000000E-01	2.478000000000E-01	0.000000000000E+00
	Si143	Si	-2.478000000000E-01	-2.478000000000E-01	5.000000000000E-01
	Si144	Si	0.000000000000E+00	2.478000000000E-01	5.000000000000E-01


data_ AFN
_chemical_name_common		'AFN'
_cell_length_a		9.71974223
_cell_length_b		9.71974223
_cell_length_c		20.40400000
_cell_angle_alpha		77.658544
_cell_angle_beta		102.341456
_cell_angle_gamma		92.309362
_space group_name_H-M_alt		'P 1'
_space_group_IT_number		1

loop_
	_atom_site_label
	_atom_site_type_symbol
	_atom_site_fract_x
	_atom_site_fract_y
	_atom_site_fract_z
	O1	O	-3.398000000000E-01	2.360000000000E-02	1.631000000000E-01
	O2	O	2.360000000000E-02	-3.398000000000E-01	-1.631000000000E-01
	O3	O	3.398000000000E-01	-2.360000000000E-02	-1.631000000000E-01
	O4	O	-2.360000000000E-02	3.398000000000E-01	1.631000000000E-01
	O5	O	4.468000000000E-01	-8.200000000000E-02	8.775000000000E-02
	O6	O	-8.200000000000E-02	4.468000000000E-01	-8.775000000000E-02
	O7	O	-4.468000000000E-01	8.200000000000E-02	-8.775000000000E-02
	O8	O	8.200000000000E-02	-4.468000000000E-01	8.775000000000E-02
	O9	O	4.143000000000E-01	1.629000000000E-01	1.162500000000E-01
	O10	O	1.629000000000E-01	4.143000000000E-01	-1.162500000000E-01
	O11	O	-4.143000000000E-01	-1.629000000000E-01	-1.162500000000E-01
	O12	O	-1.629000000000E-01	-4.143000000000E-01	1.162500000000E-01
	O13	O	-4.206000000000E-01	1.416000000000E-01	3.320000000000E-02
	O14	O	1.416000000000E-01	-4.206000000000E-01	-3.320000000000E-02
	O15	O	4.206000000000E-01	-1.416000000000E-01	-3.320000000000E-02
	O16	O	-1.416000000000E-01	4.206000000000E-01	3.320000000000E-02
	O17	O	2.964000000000E-01	4.140000000000E-01	7.435000000000E-02
	O18	O	4.140000000000E-01	2.964000000000E-01	-7.435000000000E-02
	O19	O	-2.964000000000E-01	-4.140000000000E-01	-7.435000000000E-02
	O20	O	-4.140000000000E-01	-2.964000000000E-01	7.435000000000E-02
	O21	O	3.105000000000E-01	-3.105000000000E-01	6.125000000000E-02
	O22	O	-3.105000000000E-01	3.105000000000E-01	-6.125000000000E-02
	O23	O	-1.426000000000E-01	-1.426000000000E-01	2.500000000000E-01
	O24	O	1.426000000000E-01	1.426000000000E-01	2.500000000000E-01
	O25	O	7.250000000000E-02	-7.250000000000E-02	-1.612000000000E-01
	O26	O	-7.250000000000E-02	7.250000000000E-02	1.612000000000E-01
	O27	O	-1.478000000000E-01	-1.960000000000E-01	-1.188500000000E-01
	O28	O	-1.960000000000E-01	-1.478000000000E-01	1.188500000000E-01
	O29	O	1.478000000000E-01	1.960000000000E-01	1.188500000000E-01
	O30	O	1.960000000000E-01	1.478000000000E-01	-1.188500000000E-01
	O31	O	-2.241000000000E-01	-2.241000000000E-01	0.000000000000E+00
	O32	O	2.241000000000E-01	2.241000000000E-01	0.000000000000E+00
	Si33	Si	-2.480000000000E-01	-2.706000000000E-01	7.745000000000E-02
	Si34	Si	-2.706000000000E-01	-2.480000000000E-01	-7.745000000000E-02
	Si35	Si	2.480000000000E-01	2.706000000000E-01	-7.745000000000E-02
	Si36	Si	2.706000000000E-01	2.480000000000E-01	7.745000000000E-02
	Si37	Si	-4.746000000000E-01	6.180000000000E-02	1.007000000000E-01
	Si38	Si	6.180000000000E-02	-4.746000000000E-01	-1.007000000000E-01
	Si39	Si	4.746000000000E-01	-6.180000000000E-02	-1.007000000000E-01
	Si40	Si	-6.180000000000E-02	4.746000000000E-01	1.007000000000E-01
	Si41	Si	2.086000000000E-01	-4.406000000000E-01	4.755000000000E-02
	Si42	Si	-4.406000000000E-01	2.086000000000E-01	-4.755000000000E-02
	Si43	Si	-2.086000000000E-01	4.406000000000E-01	-4.755000000000E-02
	Si44	Si	4.406000000000E-01	-2.086000000000E-01	4.755000000000E-02
	Si45	Si	-4.860000000000E-02	-1.878000000000E-01	-1.735500000000E-01
	Si46	Si	-1.878000000000E-01	-4.860000000000E-02	1.735500000000E-01
	Si47	Si	4.860000000000E-02	1.878000000000E-01	1.735500000000E-01
	Si48	Si	1.878000000000E-01	4.860000000000E-02	-1.735500000000E-01
	O49	O	2.360000000000E-02	-3.398000000000E-01	3.369000000000E-01
	O50	O	7.250000000000E-02	-7.250000000000E-02	3.388000000000E-01
	O51	O	-4.206000000000E-01	1.416000000000E-01	-4.668000000000E-01
	O52	O	-7.250000000000E-02	7.250000000000E-02	-3.388000000000E-01
	O53	O	-4.468000000000E-01	8.200000000000E-02	4.122500000000E-01
	O54	O	-1.478000000000E-01	-1.960000000000E-01	3.811500000000E-01
	O55	O	1.416000000000E-01	-4.206000000000E-01	4.668000000000E-01
	O56	O	-1.960000000000E-01	-1.478000000000E-01	-3.811500000000E-01
	O57	O	-2.360000000000E-02	3.398000000000E-01	-3.369000000000E-01
	O58	O	1.478000000000E-01	1.960000000000E-01	-3.811500000000E-01
	O59	O	4.206000000000E-01	-1.416000000000E-01	4.668000000000E-01
	O60	O	1.960000000000E-01	1.478000000000E-01	3.811500000000E-01
	O61	O	8.200000000000E-02	-4.468000000000E-01	-4.122500000000E-01
	O62	O	-2.241000000000E-01	-2.241000000000E-01	5.000000000000E-01
	O63	O	-1.416000000000E-01	4.206000000000E-01	-4.668000000000E-01
	O64	O	2.241000000000E-01	2.241000000000E-01	5.000000000000E-01
	O65	O	-3.398000000000E-01	2.360000000000E-02	-3.369000000000E-01
	Si66	Si	-2.480000000000E-01	-2.706000000000E-01	-4.225500000000E-01
	O67	O	2.964000000000E-01	4.140000000000E-01	-4.256500000000E-01
	Si68	Si	-2.706000000000E-01	-2.480000000000E-01	4.225500000000E-01
	O69	O	4.143000000000E-01	1.629000000000E-01	-3.837500000000E-01
	Si70	Si	2.480000000000E-01	2.706000000000E-01	4.225500000000E-01
	O71	O	4.140000000000E-01	2.964000000000E-01	4.256500000000E-01
	Si72	Si	2.706000000000E-01	2.480000000000E-01	-4.225500000000E-01
	O73	O	4.468000000000E-01	-8.200000000000E-02	-4.122500000000E-01
	Si74	Si	-4.746000000000E-01	6.180000000000E-02	-3.993000000000E-01
	O75	O	-2.964000000000E-01	-4.140000000000E-01	4.256500000000E-01
	Si76	Si	6.180000000000E-02	-4.746000000000E-01	3.993000000000E-01
	O77	O	1.629000000000E-01	4.143000000000E-01	3.837500000000E-01
	Si78	Si	4.746000000000E-01	-6.180000000000E-02	3.993000000000E-01
	O79	O	-4.140000000000E-01	-2.964000000000E-01	-4.256500000000E-01
	Si80	Si	-6.180000000000E-02	4.746000000000E-01	-3.993000000000E-01
	O81	O	3.398000000000E-01	-2.360000000000E-02	3.369000000000E-01
	Si82	Si	2.086000000000E-01	-4.406000000000E-01	-4.524500000000E-01
	O83	O	3.105000000000E-01	-3.105000000000E-01	-4.387500000000E-01
	Si84	Si	-4.406000000000E-01	2.086000000000E-01	4.524500000000E-01
	O85	O	-4.143000000000E-01	-1.629000000000E-01	3.837500000000E-01
	Si86	Si	-2.086000000000E-01	4.406000000000E-01	4.524500000000E-01
	O87	O	-3.105000000000E-01	3.105000000000E-01	4.387500000000E-01
	Si88	Si	4.406000000000E-01	-2.086000000000E-01	-4.524500000000E-01
	O89	O	-8.200000000000E-02	4.468000000000E-01	4.122500000000E-01
	Si90	Si	-4.860000000000E-02	-1.878000000000E-01	3.264500000000E-01
	O91	O	-1.426000000000E-01	-1.426000000000E-01	-2.500000000000E-01
	Si92	Si	-1.878000000000E-01	-4.860000000000E-02	-3.264500000000E-01
	O93	O	-1.629000000000E-01	-4.143000000000E-01	-3.837500000000E-01
	Si94	Si	4.860000000000E-02	1.878000000000E-01	-3.264500000000E-01
	O95	O	1.426000000000E-01	1.426000000000E-01	-2.500000000000E-01
	Si96	Si	1.878000000000E-01	4.860000000000E-02	3.264500000000E-01


data_ AFR
_chemical_name_common		'AFR'
_cell_length_a		22.30500000
_cell_length_b		13.56700000
_cell_length_c		6.97200000
_cell_angle_alpha		90.000000
_cell_angle_beta		90.000000
_cell_angle_gamma		90.000000
_space group_name_H-M_alt		'P 1'
_space_group_IT_number		1

loop_
	_atom_site_label
	_atom_site_type_symbol
	_atom_site_fract_x
	_atom_site_fract_y
	_atom_site_fract_z
	O1	O	3.985000000000E-01	3.737000000000E-01	3.146000000000E-01
	O2	O	-3.985000000000E-01	-3.737000000000E-01	3.146000000000E-01
	O3	O	-1.015000000000E-01	1.263000000000E-01	-3.146000000000E-01
	O4	O	1.015000000000E-01	-1.263000000000E-01	-3.146000000000E-01
	O5	O	1.015000000000E-01	1.263000000000E-01	-3.146000000000E-01
	O6	O	-1.015000000000E-01	-1.263000000000E-01	-3.146000000000E-01
	O7	O	-3.985000000000E-01	3.737000000000E-01	3.146000000000E-01
	O8	O	3.985000000000E-01	-3.737000000000E-01	3.146000000000E-01
	O9	O	2.808000000000E-01	3.623000000000E-01	3.118000000000E-01
	O10	O	-2.808000000000E-01	-3.623000000000E-01	3.118000000000E-01
	O11	O	-2.192000000000E-01	1.377000000000E-01	-3.118000000000E-01
	O12	O	2.192000000000E-01	-1.377000000000E-01	-3.118000000000E-01
	O13	O	2.192000000000E-01	1.377000000000E-01	-3.118000000000E-01
	O14	O	-2.192000000000E-01	-1.377000000000E-01	-3.118000000000E-01
	O15	O	-2.808000000000E-01	3.623000000000E-01	3.118000000000E-01
	O16	O	2.808000000000E-01	-3.623000000000E-01	3.118000000000E-01
	O17	O	3.409000000000E-01	3.146000000000E-01	-3.773000000000E-01
	O18	O	-3.409000000000E-01	-3.146000000000E-01	-3.773000000000E-01
	O19	O	-1.591000000000E-01	1.854000000000E-01	3.773000000000E-01
	O20	O	1.591000000000E-01	-1.854000000000E-01	3.773000000000E-01
	O21	O	1.591000000000E-01	1.854000000000E-01	3.773000000000E-01
	O22	O	-1.591000000000E-01	-1.854000000000E-01	3.773000000000E-01
	O23	O	-3.409000000000E-01	3.146000000000E-01	-3.773000000000E-01
	O24	O	3.409000000000E-01	-3.146000000000E-01	-3.773000000000E-01
	O25	O	3.345000000000E-01	-5.000000000000E-01	-4.861000000000E-01
	O26	O	-3.345000000000E-01	-5.000000000000E-01	-4.861000000000E-01
	O27	O	-1.655000000000E-01	9.819913242059E-17	4.861000000000E-01
	O28	O	1.655000000000E-01	-9.819913242059E-17	4.861000000000E-01
	O29	O	3.976000000000E-01	3.184000000000E-01	-4.670000000000E-02
	O30	O	-3.976000000000E-01	-3.184000000000E-01	-4.670000000000E-02
	O31	O	-1.024000000000E-01	1.816000000000E-01	4.670000000000E-02
	O32	O	1.024000000000E-01	-1.816000000000E-01	4.670000000000E-02
	O33	O	1.024000000000E-01	1.816000000000E-01	4.670000000000E-02
	O34	O	-1.024000000000E-01	-1.816000000000E-01	4.670000000000E-02
	O35	O	-3.976000000000E-01	3.184000000000E-01	-4.670000000000E-02
	O36	O	3.976000000000E-01	-3.184000000000E-01	-4.670000000000E-02
	O37	O	4.275000000000E-01	-5.000000000000E-01	4.390000000000E-02
	O38	O	-4.275000000000E-01	-5.000000000000E-01	4.390000000000E-02
	O39	O	-7.250000000000E-02	9.819913242059E-17	-4.390000000000E-02
	O40	O	7.250000000000E-02	-9.819913242059E-17	-4.390000000000E-02
	O41	O	-5.000000000000E-01	3.533000000000E-01	1.271000000000E-01
	O42	O	-5.000000000000E-01	-3.533000000000E-01	1.271000000000E-01
	O43	O	-1.194591015064E-16	1.467000000000E-01	-1.271000000000E-01
	O44	O	0.000000000000E+00	-1.467000000000E-01	-1.271000000000E-01
	O45	O	2.208000000000E-01	-5.000000000000E-01	1.287000000000E-01
	O46	O	-2.208000000000E-01	-5.000000000000E-01	1.287000000000E-01
	O47	O	-2.792000000000E-01	9.819913242059E-17	-1.287000000000E-01
	O48	O	2.792000000000E-01	-9.819913242059E-17	-1.287000000000E-01
	O49	O	2.842000000000E-01	3.704000000000E-01	-6.470000000000E-02
	O50	O	-2.842000000000E-01	-3.704000000000E-01	-6.470000000000E-02
	O51	O	-2.158000000000E-01	1.296000000000E-01	6.470000000000E-02
	O52	O	2.158000000000E-01	-1.296000000000E-01	6.470000000000E-02
	O53	O	2.158000000000E-01	1.296000000000E-01	6.470000000000E-02
	O54	O	-2.158000000000E-01	-1.296000000000E-01	6.470000000000E-02
	O55	O	-2.842000000000E-01	3.704000000000E-01	-6.470000000000E-02
	O56	O	2.842000000000E-01	-3.704000000000E-01	-6.470000000000E-02
	O57	O	1.854000000000E-01	3.153000000000E-01	1.106000000000E-01
	O58	O	-1.854000000000E-01	-3.153000000000E-01	1.106000000000E-01
	O59	O	-3.146000000000E-01	1.847000000000E-01	-1.106000000000E-01
	O60	O	3.146000000000E-01	-1.847000000000E-01	-1.106000000000E-01
	O61	O	3.146000000000E-01	1.847000000000E-01	-1.106000000000E-01
	O62	O	-3.146000000000E-01	-1.847000000000E-01	-1.106000000000E-01
	O63	O	-1.854000000000E-01	3.153000000000E-01	1.106000000000E-01
	O64	O	1.854000000000E-01	-3.153000000000E-01	1.106000000000E-01
	Si65	Si	3.387000000000E-01	3.876000000000E-01	4.408000000000E-01
	Si66	Si	-3.387000000000E-01	-3.876000000000E-01	4.408000000000E-01
	Si67	Si	-1.613000000000E-01	1.124000000000E-01	-4.408000000000E-01
	Si68	Si	1.613000000000E-01	-1.124000000000E-01	-4.408000000000E-01
	Si69	Si	1.613000000000E-01	1.124000000000E-01	-4.408000000000E-01
	Si70	Si	-1.613000000000E-01	-1.124000000000E-01	-4.408000000000E-01
	Si71	Si	-3.387000000000E-01	3.876000000000E-01	4.408000000000E-01
	Si72	Si	3.387000000000E-01	-3.876000000000E-01	4.408000000000E-01
	Si73	Si	4.309000000000E-01	3.864000000000E-01	1.098000000000E-01
	Si74	Si	-4.309000000000E-01	-3.864000000000E-01	1.098000000000E-01
	Si75	Si	-6.910000000000E-02	1.136000000000E-01	-1.098000000000E-01
	Si76	Si	6.910000000000E-02	-1.136000000000E-01	-1.098000000000E-01
	Si77	Si	6.910000000000E-02	1.136000000000E-01	-1.098000000000E-01
	Si78	Si	-6.910000000000E-02	-1.136000000000E-01	-1.098000000000E-01
	Si79	Si	-4.309000000000E-01	3.864000000000E-01	1.098000000000E-01
	Si80	Si	4.309000000000E-01	-3.864000000000E-01	1.098000000000E-01
	Si81	Si	2.428000000000E-01	3.871000000000E-01	1.216000000000E-01
	Si82	Si	-2.428000000000E-01	-3.871000000000E-01	1.216000000000E-01
	Si83	Si	-2.572000000000E-01	1.129000000000E-01	-1.216000000000E-01
	Si84	Si	2.572000000000E-01	-1.129000000000E-01	-1.216000000000E-01
	Si85	Si	2.572000000000E-01	1.129000000000E-01	-1.216000000000E-01
	Si86	Si	-2.572000000000E-01	-1.129000000000E-01	-1.216000000000E-01
	Si87	Si	-2.428000000000E-01	3.871000000000E-01	1.216000000000E-01
	Si88	Si	2.428000000000E-01	-3.871000000000E-01	1.216000000000E-01
	Si89	Si	3.344000000000E-01	2.971000000000E-01	-1.499000000000E-01
	Si90	Si	-3.344000000000E-01	-2.971000000000E-01	-1.499000000000E-01
	Si91	Si	-1.656000000000E-01	2.029000000000E-01	1.499000000000E-01
	Si92	Si	1.656000000000E-01	-2.029000000000E-01	1.499000000000E-01
	Si93	Si	1.656000000000E-01	2.029000000000E-01	1.499000000000E-01
	Si94	Si	-1.656000000000E-01	-2.029000000000E-01	1.499000000000E-01
	Si95	Si	-3.344000000000E-01	2.971000000000E-01	-1.499000000000E-01
	Si96	Si	3.344000000000E-01	-2.971000000000E-01	-1.499000000000E-01


data_ AFV
_chemical_name_common		'AFV'
_cell_length_a		13.22610000
_cell_length_b		13.22610000
_cell_length_c		12.58380000
_cell_angle_alpha		90.000000
_cell_angle_beta		90.000000
_cell_angle_gamma		120.000000
_space group_name_H-M_alt		'P 1'
_space_group_IT_number		1

loop_
	_atom_site_label
	_atom_site_type_symbol
	_atom_site_fract_x
	_atom_site_fract_y
	_atom_site_fract_z
	Si1	Si	4.349000000000E-01	1.001000000000E-01	1.750000000000E-01
	Si2	Si	-1.001000000000E-01	3.348000000000E-01	1.750000000000E-01
	Si3	Si	-3.348000000000E-01	-4.349000000000E-01	1.750000000000E-01
	Si4	Si	3.348000000000E-01	-1.001000000000E-01	-1.750000000000E-01
	Si5	Si	-4.349000000000E-01	-3.348000000000E-01	-1.750000000000E-01
	Si6	Si	1.001000000000E-01	4.349000000000E-01	-1.750000000000E-01
	Si7	Si	-4.349000000000E-01	-1.001000000000E-01	-1.750000000000E-01
	Si8	Si	1.001000000000E-01	-3.348000000000E-01	-1.750000000000E-01
	Si9	Si	3.348000000000E-01	4.349000000000E-01	-1.750000000000E-01
	Si10	Si	-3.348000000000E-01	1.001000000000E-01	1.750000000000E-01
	Si11	Si	4.349000000000E-01	3.348000000000E-01	1.750000000000E-01
	Si12	Si	-1.001000000000E-01	-4.349000000000E-01	1.750000000000E-01
	Si13	Si	4.362000000000E-01	9.980000000000E-02	4.150000000000E-01
	Si14	Si	-9.980000000000E-02	3.364000000000E-01	4.150000000000E-01
	Si15	Si	-3.364000000000E-01	-4.362000000000E-01	4.150000000000E-01
	Si16	Si	3.364000000000E-01	-9.980000000000E-02	-4.150000000000E-01
	Si17	Si	-4.362000000000E-01	-3.364000000000E-01	-4.150000000000E-01
	Si18	Si	9.980000000000E-02	4.362000000000E-01	-4.150000000000E-01
	Si19	Si	-4.362000000000E-01	-9.980000000000E-02	-4.150000000000E-01
	Si20	Si	9.980000000000E-02	-3.364000000000E-01	-4.150000000000E-01
	Si21	Si	3.364000000000E-01	4.362000000000E-01	-4.150000000000E-01
	Si22	Si	-3.364000000000E-01	9.980000000000E-02	4.150000000000E-01
	Si23	Si	4.362000000000E-01	3.364000000000E-01	4.150000000000E-01
	Si24	Si	-9.980000000000E-02	-4.362000000000E-01	4.150000000000E-01
	Si25	Si	2.377000000000E-01	5.551115123126E-17	0.000000000000E+00
	Si26	Si	1.938553502931E-17	2.377000000000E-01	0.000000000000E+00
	Si27	Si	-2.377000000000E-01	-2.377000000000E-01	0.000000000000E+00
	Si28	Si	-2.377000000000E-01	-1.387778780781E-17	0.000000000000E+00
	Si29	Si	-1.938553502931E-17	-2.377000000000E-01	0.000000000000E+00
	Si30	Si	2.377000000000E-01	2.377000000000E-01	0.000000000000E+00
	O31	O	-2.361000000000E-01	2.361000000000E-01	1.719000000000E-01
	O32	O	-2.361000000000E-01	-4.722000000000E-01	1.719000000000E-01
	O33	O	4.722000000000E-01	2.361000000000E-01	1.719000000000E-01
	O34	O	-4.722000000000E-01	-2.361000000000E-01	-1.719000000000E-01
	O35	O	2.361000000000E-01	4.722000000000E-01	-1.719000000000E-01
	O36	O	2.361000000000E-01	-2.361000000000E-01	-1.719000000000E-01
	O37	O	3.220000000000E-01	2.660000000000E-02	1.011000000000E-01
	O38	O	-2.660000000000E-02	2.954000000000E-01	1.011000000000E-01
	O39	O	-2.954000000000E-01	-3.220000000000E-01	1.011000000000E-01
	O40	O	2.954000000000E-01	-2.660000000000E-02	-1.011000000000E-01
	O41	O	-3.220000000000E-01	-2.954000000000E-01	-1.011000000000E-01
	O42	O	2.660000000000E-02	3.220000000000E-01	-1.011000000000E-01
	O43	O	-3.220000000000E-01	-2.660000000000E-02	-1.011000000000E-01
	O44	O	2.660000000000E-02	-2.954000000000E-01	-1.011000000000E-01
	O45	O	2.954000000000E-01	3.220000000000E-01	-1.011000000000E-01
	O46	O	-2.954000000000E-01	2.660000000000E-02	1.011000000000E-01
	O47	O	3.220000000000E-01	2.954000000000E-01	1.011000000000E-01
	O48	O	-2.660000000000E-02	-3.220000000000E-01	1.011000000000E-01
	O49	O	-4.574000000000E-01	4.574000000000E-01	1.354000000000E-01
	O50	O	-4.574000000000E-01	8.520000000000E-02	1.354000000000E-01
	O51	O	-8.520000000000E-02	4.574000000000E-01	1.354000000000E-01
	O52	O	8.520000000000E-02	-4.574000000000E-01	-1.354000000000E-01
	O53	O	4.574000000000E-01	-8.520000000000E-02	-1.354000000000E-01
	O54	O	4.574000000000E-01	-4.574000000000E-01	-1.354000000000E-01
	O55	O	4.024000000000E-01	5.240000000000E-02	2.951000000000E-01
	O56	O	-5.240000000000E-02	3.500000000000E-01	2.951000000000E-01
	O57	O	-3.500000000000E-01	-4.024000000000E-01	2.951000000000E-01
	O58	O	3.500000000000E-01	-5.240000000000E-02	-2.951000000000E-01
	O59	O	-4.024000000000E-01	-3.500000000000E-01	-2.951000000000E-01
	O60	O	5.240000000000E-02	4.024000000000E-01	-2.951000000000E-01
	O61	O	-4.024000000000E-01	-5.240000000000E-02	-2.951000000000E-01
	O62	O	5.240000000000E-02	-3.500000000000E-01	-2.951000000000E-01
	O63	O	3.500000000000E-01	4.024000000000E-01	-2.951000000000E-01
	O64	O	-3.500000000000E-01	5.240000000000E-02	2.951000000000E-01
	O65	O	4.024000000000E-01	3.500000000000E-01	2.951000000000E-01
	O66	O	-5.240000000000E-02	-4.024000000000E-01	2.951000000000E-01
	O67	O	-4.275000000000E-01	4.275000000000E-01	4.352000000000E-01
	O68	O	-4.275000000000E-01	1.450000000000E-01	4.352000000000E-01
	O69	O	-1.450000000000E-01	4.275000000000E-01	4.352000000000E-01
	O70	O	1.450000000000E-01	-4.275000000000E-01	-4.352000000000E-01
	O71	O	4.275000000000E-01	-1.450000000000E-01	-4.352000000000E-01
	O72	O	4.275000000000E-01	-4.275000000000E-01	-4.352000000000E-01
	O73	O	3.587000000000E-01	-5.551115123126E-17	5.000000000000E-01
	O74	O	3.877107005862E-17	3.587000000000E-01	5.000000000000E-01
	O75	O	-3.587000000000E-01	-3.587000000000E-01	5.000000000000E-01
	O76	O	-3.587000000000E-01	5.551115123126E-17	5.000000000000E-01
	O77	O	-3.877107005862E-17	-3.587000000000E-01	5.000000000000E-01
	O78	O	3.587000000000E-01	3.587000000000E-01	5.000000000000E-01
	O79	O	-2.053000000000E-01	2.053000000000E-01	4.327000000000E-01
	O80	O	-2.053000000000E-01	-4.106000000000E-01	4.327000000000E-01
	O81	O	4.106000000000E-01	2.053000000000E-01	4.327000000000E-01
	O82	O	-4.106000000000E-01	-2.053000000000E-01	-4.327000000000E-01
	O83	O	2.053000000000E-01	4.106000000000E-01	-4.327000000000E-01
	O84	O	2.053000000000E-01	-2.053000000000E-01	-4.327000000000E-01
	O85	O	-1.117000000000E-01	1.117000000000E-01	-2.430000000000E-02
	O86	O	-1.117000000000E-01	-2.234000000000E-01	-2.430000000000E-02
	O87	O	2.234000000000E-01	1.117000000000E-01	-2.430000000000E-02
	O88	O	-2.234000000000E-01	-1.117000000000E-01	2.430000000000E-02
	O89	O	1.117000000000E-01	2.234000000000E-01	2.430000000000E-02
	O90	O	1.117000000000E-01	-1.117000000000E-01	2.430000000000E-02


data_ AFX
_chemical_name_common		'AFX'
_cell_length_a		13.67400000
_cell_length_b		13.67400000
_cell_length_c		19.69500000
_cell_angle_alpha		90.000000
_cell_angle_beta		90.000000
_cell_angle_gamma		120.000000
_space group_name_H-M_alt		'P 1'
_space_group_IT_number		1

loop_
	_atom_site_label
	_atom_site_type_symbol
	_atom_site_fract_x
	_atom_site_fract_y
	_atom_site_fract_z
	O1	O	9.800000000000E-02	1.960000000000E-01	9.200000000000E-02
	O2	O	-9.800000000000E-02	-1.960000000000E-01	-4.080000000000E-01
	O3	O	-1.960000000000E-01	-9.800000000000E-02	9.200000000000E-02
	O4	O	9.800000000000E-02	-9.800000000000E-02	9.200000000000E-02
	O5	O	-9.800000000000E-02	9.800000000000E-02	-4.080000000000E-01
	O6	O	1.960000000000E-01	9.800000000000E-02	-4.080000000000E-01
	O7	O	-9.800000000000E-02	-1.960000000000E-01	-9.200000000000E-02
	O8	O	-9.800000000000E-02	9.800000000000E-02	-9.200000000000E-02
	O9	O	1.960000000000E-01	9.800000000000E-02	-9.200000000000E-02
	O10	O	-1.960000000000E-01	-9.800000000000E-02	4.080000000000E-01
	O11	O	9.800000000000E-02	-9.800000000000E-02	4.080000000000E-01
	O12	O	9.800000000000E-02	1.960000000000E-01	4.080000000000E-01
	O13	O	1.203000000000E-01	2.406000000000E-01	-4.014000000000E-01
	O14	O	-1.203000000000E-01	-2.406000000000E-01	9.860000000000E-02
	O15	O	-2.406000000000E-01	-1.203000000000E-01	-4.014000000000E-01
	O16	O	1.203000000000E-01	-1.203000000000E-01	-4.014000000000E-01
	O17	O	-1.203000000000E-01	1.203000000000E-01	9.860000000000E-02
	O18	O	2.406000000000E-01	1.203000000000E-01	9.860000000000E-02
	O19	O	-1.203000000000E-01	-2.406000000000E-01	4.014000000000E-01
	O20	O	-1.203000000000E-01	1.203000000000E-01	4.014000000000E-01
	O21	O	2.406000000000E-01	1.203000000000E-01	4.014000000000E-01
	O22	O	-2.406000000000E-01	-1.203000000000E-01	-9.860000000000E-02
	O23	O	1.203000000000E-01	-1.203000000000E-01	-9.860000000000E-02
	O24	O	1.203000000000E-01	2.406000000000E-01	-9.860000000000E-02
	O25	O	2.577000000000E-01	-8.326672684689E-17	0.000000000000E+00
	O26	O	-2.577000000000E-01	8.326672684689E-17	5.000000000000E-01
	O27	O	3.750110060716E-17	2.577000000000E-01	0.000000000000E+00
	O28	O	-2.577000000000E-01	-2.577000000000E-01	0.000000000000E+00
	O29	O	2.577000000000E-01	2.577000000000E-01	5.000000000000E-01
	O30	O	-3.750110060716E-17	-2.577000000000E-01	5.000000000000E-01
	O31	O	-2.577000000000E-01	8.326672684689E-17	0.000000000000E+00
	O32	O	2.577000000000E-01	-8.326672684689E-17	5.000000000000E-01
	O33	O	-3.750110060716E-17	-2.577000000000E-01	0.000000000000E+00
	O34	O	2.577000000000E-01	2.577000000000E-01	0.000000000000E+00
	O35	O	-2.577000000000E-01	-2.577000000000E-01	5.000000000000E-01
	O36	O	3.750110060716E-17	2.577000000000E-01	5.000000000000E-01
	O37	O	2.320000000000E-02	3.334000000000E-01	1.250000000000E-01
	O38	O	-2.320000000000E-02	-3.334000000000E-01	-3.750000000000E-01
	O39	O	-3.334000000000E-01	-3.102000000000E-01	1.250000000000E-01
	O40	O	3.102000000000E-01	-2.320000000000E-02	1.250000000000E-01
	O41	O	-3.102000000000E-01	2.320000000000E-02	-3.750000000000E-01
	O42	O	3.334000000000E-01	3.102000000000E-01	-3.750000000000E-01
	O43	O	-3.102000000000E-01	-3.334000000000E-01	-1.250000000000E-01
	O44	O	-2.320000000000E-02	3.102000000000E-01	-1.250000000000E-01
	O45	O	3.334000000000E-01	2.320000000000E-02	-1.250000000000E-01
	O46	O	-3.334000000000E-01	-2.320000000000E-02	3.750000000000E-01
	O47	O	2.320000000000E-02	-3.102000000000E-01	3.750000000000E-01
	O48	O	3.102000000000E-01	3.334000000000E-01	3.750000000000E-01
	O49	O	-2.320000000000E-02	-3.334000000000E-01	-1.250000000000E-01
	O50	O	2.320000000000E-02	3.334000000000E-01	3.750000000000E-01
	O51	O	3.334000000000E-01	3.102000000000E-01	-1.250000000000E-01
	O52	O	-3.102000000000E-01	2.320000000000E-02	-1.250000000000E-01
	O53	O	3.102000000000E-01	-2.320000000000E-02	3.750000000000E-01
	O54	O	-3.334000000000E-01	-3.102000000000E-01	3.750000000000E-01
	O55	O	3.102000000000E-01	3.334000000000E-01	1.250000000000E-01
	O56	O	2.320000000000E-02	-3.102000000000E-01	1.250000000000E-01
	O57	O	-3.334000000000E-01	-2.320000000000E-02	1.250000000000E-01
	O58	O	3.334000000000E-01	2.320000000000E-02	-3.750000000000E-01
	O59	O	-2.320000000000E-02	3.102000000000E-01	-3.750000000000E-01
	O60	O	-3.102000000000E-01	-3.334000000000E-01	-3.750000000000E-01
	O61	O	2.354500000000E-01	4.709000000000E-01	1.577000000000E-01
	O62	O	-2.354500000000E-01	-4.709000000000E-01	-3.423000000000E-01
	O63	O	-4.709000000000E-01	-2.354500000000E-01	1.577000000000E-01
	O64	O	2.354500000000E-01	-2.354500000000E-01	1.577000000000E-01
	O65	O	-2.354500000000E-01	2.354500000000E-01	-3.423000000000E-01
	O66	O	4.709000000000E-01	2.354500000000E-01	-3.423000000000E-01
	O67	O	-2.354500000000E-01	-4.709000000000E-01	-1.577000000000E-01
	O68	O	-2.354500000000E-01	2.354500000000E-01	-1.577000000000E-01
	O69	O	4.709000000000E-01	2.354500000000E-01	-1.577000000000E-01
	O70	O	-4.709000000000E-01	-2.354500000000E-01	3.423000000000E-01
	O71	O	2.354500000000E-01	-2.354500000000E-01	3.423000000000E-01
	O72	O	2.354500000000E-01	4.709000000000E-01	3.423000000000E-01
	O73	O	3.325000000000E-01	4.085000000000E-01	2.500000000000E-01
	O74	O	-3.325000000000E-01	-4.085000000000E-01	-2.500000000000E-01
	O75	O	-4.085000000000E-01	-7.600000000000E-02	2.500000000000E-01
	O76	O	7.600000000000E-02	-3.325000000000E-01	2.500000000000E-01
	O77	O	-7.600000000000E-02	3.325000000000E-01	-2.500000000000E-01
	O78	O	4.085000000000E-01	7.600000000000E-02	-2.500000000000E-01
	O79	O	-7.600000000000E-02	-4.085000000000E-01	-2.500000000000E-01
	O80	O	-3.325000000000E-01	7.600000000000E-02	-2.500000000000E-01
	O81	O	4.085000000000E-01	3.325000000000E-01	-2.500000000000E-01
	O82	O	-4.085000000000E-01	-3.325000000000E-01	2.500000000000E-01
	O83	O	3.325000000000E-01	-7.600000000000E-02	2.500000000000E-01
	O84	O	7.600000000000E-02	4.085000000000E-01	2.500000000000E-01
	O85	O	-4.537000000000E-01	9.260000000000E-02	-3.482000000000E-01
	O86	O	4.537000000000E-01	-9.260000000000E-02	1.518000000000E-01
	O87	O	-9.260000000000E-02	4.537000000000E-01	-3.482000000000E-01
	O88	O	-4.537000000000E-01	4.537000000000E-01	-3.482000000000E-01
	O89	O	4.537000000000E-01	-4.537000000000E-01	1.518000000000E-01
	O90	O	9.260000000000E-02	-4.537000000000E-01	1.518000000000E-01
	O91	O	4.537000000000E-01	-9.260000000000E-02	3.482000000000E-01
	O92	O	4.537000000000E-01	-4.537000000000E-01	3.482000000000E-01
	O93	O	9.260000000000E-02	-4.537000000000E-01	3.482000000000E-01
	O94	O	-9.260000000000E-02	4.537000000000E-01	-1.518000000000E-01
	O95	O	-4.537000000000E-01	4.537000000000E-01	-1.518000000000E-01
	O96	O	-4.537000000000E-01	9.260000000000E-02	-1.518000000000E-01
	Si97	Si	3.000000000000E-04	2.268000000000E-01	7.880000000000E-02
	Si98	Si	-3.000000000000E-04	-2.268000000000E-01	-4.212000000000E-01
	Si99	Si	-2.268000000000E-01	-2.265000000000E-01	7.880000000000E-02
	Si100	Si	2.265000000000E-01	-3.000000000000E-04	7.880000000000E-02
	Si101	Si	-2.265000000000E-01	3.000000000000E-04	-4.212000000000E-01
	Si102	Si	2.268000000000E-01	2.265000000000E-01	-4.212000000000E-01
	Si103	Si	-2.265000000000E-01	-2.268000000000E-01	-7.880000000000E-02
	Si104	Si	-3.000000000000E-04	2.265000000000E-01	-7.880000000000E-02
	Si105	Si	2.268000000000E-01	3.000000000000E-04	-7.880000000000E-02
	Si106	Si	-2.268000000000E-01	-3.000000000000E-04	4.212000000000E-01
	Si107	Si	3.000000000000E-04	-2.265000000000E-01	4.212000000000E-01
	Si108	Si	2.265000000000E-01	2.268000000000E-01	4.212000000000E-01
	Si109	Si	-3.000000000000E-04	-2.268000000000E-01	-7.880000000000E-02
	Si110	Si	3.000000000000E-04	2.268000000000E-01	4.212000000000E-01
	Si111	Si	2.268000000000E-01	2.265000000000E-01	-7.880000000000E-02
	Si112	Si	-2.265000000000E-01	3.000000000000E-04	-7.880000000000E-02
	Si113	Si	2.265000000000E-01	-3.000000000000E-04	4.212000000000E-01
	Si114	Si	-2.268000000000E-01	-2.265000000000E-01	4.212000000000E-01
	Si115	Si	2.265000000000E-01	2.268000000000E-01	7.880000000000E-02
	Si116	Si	3.000000000000E-04	-2.265000000000E-01	7.880000000000E-02
	Si117	Si	-2.268000000000E-01	-3.000000000000E-04	7.880000000000E-02
	Si118	Si	2.268000000000E-01	3.000000000000E-04	-4.212000000000E-01
	Si119	Si	-3.000000000000E-04	2.265000000000E-01	-4.212000000000E-01
	Si120	Si	-2.265000000000E-01	-2.268000000000E-01	-4.212000000000E-01
	Si121	Si	3.329000000000E-01	4.398000000000E-01	1.712000000000E-01
	Si122	Si	-3.329000000000E-01	-4.398000000000E-01	-3.288000000000E-01
	Si123	Si	-4.398000000000E-01	-1.069000000000E-01	1.712000000000E-01
	Si124	Si	1.069000000000E-01	-3.329000000000E-01	1.712000000000E-01
	Si125	Si	-1.069000000000E-01	3.329000000000E-01	-3.288000000000E-01
	Si126	Si	4.398000000000E-01	1.069000000000E-01	-3.288000000000E-01
	Si127	Si	-1.069000000000E-01	-4.398000000000E-01	-1.712000000000E-01
	Si128	Si	-3.329000000000E-01	1.069000000000E-01	-1.712000000000E-01
	Si129	Si	4.398000000000E-01	3.329000000000E-01	-1.712000000000E-01
	Si130	Si	-4.398000000000E-01	-3.329000000000E-01	3.288000000000E-01
	Si131	Si	3.329000000000E-01	-1.069000000000E-01	3.288000000000E-01
	Si132	Si	1.069000000000E-01	4.398000000000E-01	3.288000000000E-01
	Si133	Si	-3.329000000000E-01	-4.398000000000E-01	-1.712000000000E-01
	Si134	Si	3.329000000000E-01	4.398000000000E-01	3.288000000000E-01
	Si135	Si	4.398000000000E-01	1.069000000000E-01	-1.712000000000E-01
	Si136	Si	-1.069000000000E-01	3.329000000000E-01	-1.712000000000E-01
	Si137	Si	1.069000000000E-01	-3.329000000000E-01	3.288000000000E-01
	Si138	Si	-4.398000000000E-01	-1.069000000000E-01	3.288000000000E-01
	Si139	Si	1.069000000000E-01	4.398000000000E-01	1.712000000000E-01
	Si140	Si	3.329000000000E-01	-1.069000000000E-01	1.712000000000E-01
	Si141	Si	-4.398000000000E-01	-3.329000000000E-01	1.712000000000E-01
	Si142	Si	4.398000000000E-01	3.329000000000E-01	-3.288000000000E-01
	Si143	Si	-3.329000000000E-01	1.069000000000E-01	-3.288000000000E-01
	Si144	Si	-1.069000000000E-01	-4.398000000000E-01	-3.288000000000E-01


data_ AFY
_chemical_name_common		'AFY'
_cell_length_a		24.66000000
_cell_length_b		12.33000000
_cell_length_c		8.60300000
_cell_angle_alpha		90.000000
_cell_angle_beta		90.000000
_cell_angle_gamma		120.000000
_space group_name_H-M_alt		'P 1'
_space_group_IT_number		1

loop_
	_atom_site_label
	_atom_site_type_symbol
	_atom_site_fract_x
	_atom_site_fract_y
	_atom_site_fract_z
	O1	O	1.543500000000E-01	-2.243000000000E-01	2.491000000000E-01
	O2	O	1.121500000000E-01	-4.670000000000E-01	2.491000000000E-01
	O3	O	-2.665000000000E-01	-3.087000000000E-01	2.491000000000E-01
	O4	O	1.121500000000E-01	-3.087000000000E-01	-2.491000000000E-01
	O5	O	1.543500000000E-01	-4.670000000000E-01	-2.491000000000E-01
	O6	O	-2.665000000000E-01	-2.243000000000E-01	-2.491000000000E-01
	O7	O	-1.543500000000E-01	2.243000000000E-01	-2.491000000000E-01
	O8	O	-1.121500000000E-01	4.670000000000E-01	-2.491000000000E-01
	O9	O	2.665000000000E-01	3.087000000000E-01	-2.491000000000E-01
	O10	O	-1.121500000000E-01	3.087000000000E-01	2.491000000000E-01
	O11	O	-1.543500000000E-01	4.670000000000E-01	2.491000000000E-01
	O12	O	2.665000000000E-01	2.243000000000E-01	2.491000000000E-01
	O13	O	1.766000000000E-01	-5.551115123126E-17	3.368000000000E-01
	O14	O	2.079440590845E-17	3.532000000000E-01	3.368000000000E-01
	O15	O	-1.766000000000E-01	-3.532000000000E-01	3.368000000000E-01
	O16	O	2.079440590845E-17	-3.532000000000E-01	-3.368000000000E-01
	O17	O	1.766000000000E-01	3.532000000000E-01	-3.368000000000E-01
	O18	O	-1.766000000000E-01	-1.110223024625E-16	-3.368000000000E-01
	O19	O	1.000000000000E-01	-2.000000000000E-01	-5.000000000000E-01
	O20	O	1.000000000000E-01	4.000000000000E-01	-5.000000000000E-01
	O21	O	-2.000000000000E-01	-2.000000000000E-01	-5.000000000000E-01
	O22	O	-1.000000000000E-01	2.000000000000E-01	-5.000000000000E-01
	O23	O	-1.000000000000E-01	-4.000000000000E-01	-5.000000000000E-01
	O24	O	2.000000000000E-01	2.000000000000E-01	-5.000000000000E-01
	O25	O	-2.795000000000E-01	-4.410000000000E-01	-5.000000000000E-01
	O26	O	-2.795000000000E-01	-1.180000000000E-01	-5.000000000000E-01
	O27	O	5.900000000000E-02	-4.410000000000E-01	-5.000000000000E-01
	O28	O	-2.205000000000E-01	4.410000000000E-01	-5.000000000000E-01
	O29	O	-2.205000000000E-01	1.180000000000E-01	-5.000000000000E-01
	O30	O	-5.900000000000E-02	4.410000000000E-01	-5.000000000000E-01
	O31	O	1.666666666667E-01	-3.333333333333E-01	0.000000000000E+00
	O32	O	-1.666666666667E-01	3.333333333333E-01	0.000000000000E+00
	Si33	Si	1.625500000000E-01	-1.359000000000E-01	3.952000000000E-01
	Si34	Si	6.795000000000E-02	4.610000000000E-01	3.952000000000E-01
	Si35	Si	-2.305000000000E-01	-3.251000000000E-01	3.952000000000E-01
	Si36	Si	6.795000000000E-02	-3.251000000000E-01	-3.952000000000E-01
	Si37	Si	1.625500000000E-01	4.610000000000E-01	-3.952000000000E-01
	Si38	Si	-2.305000000000E-01	-1.359000000000E-01	-3.952000000000E-01
	Si39	Si	-1.625500000000E-01	1.359000000000E-01	-3.952000000000E-01
	Si40	Si	-6.795000000000E-02	-4.610000000000E-01	-3.952000000000E-01
	Si41	Si	2.305000000000E-01	3.251000000000E-01	-3.952000000000E-01
	Si42	Si	-6.795000000000E-02	3.251000000000E-01	3.952000000000E-01
	Si43	Si	-1.625500000000E-01	-4.610000000000E-01	3.952000000000E-01
	Si44	Si	2.305000000000E-01	1.359000000000E-01	3.952000000000E-01
	Si45	Si	1.666666666667E-01	-3.333333333333E-01	-1.868000000000E-01
	Si46	Si	1.666666666667E-01	-3.333333333333E-01	1.868000000000E-01
	Si47	Si	-1.666666666667E-01	3.333333333333E-01	1.868000000000E-01
	Si48	Si	-1.666666666667E-01	3.333333333333E-01	-1.868000000000E-01
	O49	O	-3.878500000000E-01	-4.670000000000E-01	2.491000000000E-01
	O50	O	2.205000000000E-01	-4.410000000000E-01	-5.000000000000E-01
	O51	O	-3.234000000000E-01	-2.220446049250E-16	3.368000000000E-01
	O52	O	2.205000000000E-01	-1.180000000000E-01	-5.000000000000E-01
	O53	O	3.456500000000E-01	2.243000000000E-01	-2.491000000000E-01
	O54	O	-4.410000000000E-01	-4.410000000000E-01	-5.000000000000E-01
	O55	O	-5.000000000000E-01	3.532000000000E-01	3.368000000000E-01
	O56	O	2.795000000000E-01	4.410000000000E-01	-5.000000000000E-01
	O57	O	-3.878500000000E-01	-3.087000000000E-01	-2.491000000000E-01
	O58	O	2.795000000000E-01	1.180000000000E-01	-5.000000000000E-01
	O59	O	3.234000000000E-01	-3.532000000000E-01	3.368000000000E-01
	O60	O	4.410000000000E-01	4.410000000000E-01	-5.000000000000E-01
	O61	O	3.878500000000E-01	4.670000000000E-01	-2.491000000000E-01
	O62	O	-3.333333333333E-01	-3.333333333333E-01	0.000000000000E+00
	O63	O	-5.000000000000E-01	-3.532000000000E-01	-3.368000000000E-01
	O64	O	3.333333333333E-01	3.333333333333E-01	0.000000000000E+00
	O65	O	-3.456500000000E-01	-2.243000000000E-01	2.491000000000E-01
	Si66	Si	-3.374500000000E-01	-1.359000000000E-01	3.952000000000E-01
	O67	O	-3.234000000000E-01	3.532000000000E-01	-3.368000000000E-01
	Si68	Si	-4.320500000000E-01	4.610000000000E-01	3.952000000000E-01
	O69	O	-2.335000000000E-01	3.087000000000E-01	-2.491000000000E-01
	Si70	Si	2.695000000000E-01	-3.251000000000E-01	3.952000000000E-01
	O71	O	3.234000000000E-01	-1.665334536938E-16	-3.368000000000E-01
	Si72	Si	-4.320500000000E-01	-3.251000000000E-01	-3.952000000000E-01
	O73	O	-3.456500000000E-01	-4.670000000000E-01	-2.491000000000E-01
	Si74	Si	-3.374500000000E-01	4.610000000000E-01	-3.952000000000E-01
	O75	O	-4.000000000000E-01	-2.000000000000E-01	-5.000000000000E-01
	Si76	Si	2.695000000000E-01	-1.359000000000E-01	-3.952000000000E-01
	O77	O	3.878500000000E-01	3.087000000000E-01	2.491000000000E-01
	Si78	Si	3.374500000000E-01	1.359000000000E-01	-3.952000000000E-01
	O79	O	-4.000000000000E-01	4.000000000000E-01	-5.000000000000E-01
	Si80	Si	4.320500000000E-01	-4.610000000000E-01	-3.952000000000E-01
	O81	O	2.335000000000E-01	-3.087000000000E-01	2.491000000000E-01
	Si82	Si	-2.695000000000E-01	3.251000000000E-01	-3.952000000000E-01
	O83	O	3.000000000000E-01	-2.000000000000E-01	-5.000000000000E-01
	Si84	Si	4.320500000000E-01	3.251000000000E-01	3.952000000000E-01
	O85	O	3.456500000000E-01	4.670000000000E-01	2.491000000000E-01
	Si86	Si	3.374500000000E-01	-4.610000000000E-01	3.952000000000E-01
	O87	O	4.000000000000E-01	2.000000000000E-01	-5.000000000000E-01
	Si88	Si	-2.695000000000E-01	1.359000000000E-01	3.952000000000E-01
	O89	O	2.335000000000E-01	-2.243000000000E-01	-2.491000000000E-01
	Si90	Si	-3.333333333333E-01	-3.333333333333E-01	-1.868000000000E-01
	O91	O	4.000000000000E-01	-4.000000000000E-01	-5.000000000000E-01
	Si92	Si	-3.333333333333E-01	-3.333333333333E-01	1.868000000000E-01
	O93	O	-2.335000000000E-01	2.243000000000E-01	2.491000000000E-01
	Si94	Si	3.333333333333E-01	3.333333333333E-01	1.868000000000E-01
	O95	O	-3.000000000000E-01	2.000000000000E-01	-5.000000000000E-01
	Si96	Si	3.333333333333E-01	3.333333333333E-01	-1.868000000000E-01


data_ ANA
_chemical_name_common		'ANA'
_cell_length_a		11.74936665
_cell_length_b		11.74936665
_cell_length_c		11.74936665
_cell_angle_alpha		109.471221
_cell_angle_beta		109.471221
_cell_angle_gamma		109.471221
_space group_name_H-M_alt		'P 1'
_space_group_IT_number		1

loop_
	_atom_site_label
	_atom_site_type_symbol
	_atom_site_fract_x
	_atom_site_fract_y
	_atom_site_fract_z
	O1	O	-4.104000000000E-01	-2.403000000000E-01	1.133000000000E-01
	O2	O	1.464000000000E-01	4.763000000000E-01	3.867000000000E-01
	O3	O	-8.960000000000E-02	2.370000000000E-02	1.701000000000E-01
	O4	O	3.536000000000E-01	-2.597000000000E-01	3.299000000000E-01
	O5	O	1.133000000000E-01	-4.104000000000E-01	-2.403000000000E-01
	O6	O	-2.403000000000E-01	1.133000000000E-01	-4.104000000000E-01
	O7	O	3.299000000000E-01	3.536000000000E-01	-2.597000000000E-01
	O8	O	4.763000000000E-01	3.867000000000E-01	1.464000000000E-01
	O9	O	3.867000000000E-01	1.464000000000E-01	4.763000000000E-01
	O10	O	2.370000000000E-02	1.701000000000E-01	-8.960000000000E-02
	O11	O	1.701000000000E-01	-8.960000000000E-02	2.370000000000E-02
	O12	O	-2.597000000000E-01	3.299000000000E-01	3.536000000000E-01
	O13	O	-2.597000000000E-01	-8.960000000000E-02	3.867000000000E-01
	O14	O	2.370000000000E-02	3.536000000000E-01	1.133000000000E-01
	O15	O	4.763000000000E-01	-4.104000000000E-01	3.299000000000E-01
	O16	O	-2.403000000000E-01	1.464000000000E-01	1.701000000000E-01
	O17	O	-8.960000000000E-02	3.867000000000E-01	-2.597000000000E-01
	O18	O	3.867000000000E-01	-2.597000000000E-01	-8.960000000000E-02
	O19	O	1.464000000000E-01	1.701000000000E-01	-2.403000000000E-01
	O20	O	1.133000000000E-01	2.370000000000E-02	3.536000000000E-01
	O21	O	3.536000000000E-01	1.133000000000E-01	2.370000000000E-02
	O22	O	3.299000000000E-01	4.763000000000E-01	-4.104000000000E-01
	O23	O	-4.104000000000E-01	3.299000000000E-01	4.763000000000E-01
	O24	O	1.701000000000E-01	-2.403000000000E-01	1.464000000000E-01
	O25	O	4.104000000000E-01	2.403000000000E-01	-1.133000000000E-01
	O26	O	-1.464000000000E-01	-4.763000000000E-01	-3.867000000000E-01
	O27	O	8.960000000000E-02	-2.370000000000E-02	-1.701000000000E-01
	O28	O	-3.536000000000E-01	2.597000000000E-01	-3.299000000000E-01
	O29	O	-1.133000000000E-01	4.104000000000E-01	2.403000000000E-01
	O30	O	2.403000000000E-01	-1.133000000000E-01	4.104000000000E-01
	O31	O	-3.299000000000E-01	-3.536000000000E-01	2.597000000000E-01
	O32	O	-4.763000000000E-01	-3.867000000000E-01	-1.464000000000E-01
	O33	O	-3.867000000000E-01	-1.464000000000E-01	-4.763000000000E-01
	O34	O	-2.370000000000E-02	-1.701000000000E-01	8.960000000000E-02
	O35	O	-1.701000000000E-01	8.960000000000E-02	-2.370000000000E-02
	O36	O	2.597000000000E-01	-3.299000000000E-01	-3.536000000000E-01
	O37	O	2.597000000000E-01	8.960000000000E-02	-3.867000000000E-01
	O38	O	-2.370000000000E-02	-3.536000000000E-01	-1.133000000000E-01
	O39	O	-4.763000000000E-01	4.104000000000E-01	-3.299000000000E-01
	O40	O	2.403000000000E-01	-1.464000000000E-01	-1.701000000000E-01
	O41	O	8.960000000000E-02	-3.867000000000E-01	2.597000000000E-01
	O42	O	-3.867000000000E-01	2.597000000000E-01	8.960000000000E-02
	O43	O	-1.464000000000E-01	-1.701000000000E-01	2.403000000000E-01
	O44	O	-1.133000000000E-01	-2.370000000000E-02	-3.536000000000E-01
	O45	O	-3.536000000000E-01	-1.133000000000E-01	-2.370000000000E-02
	O46	O	-3.299000000000E-01	-4.763000000000E-01	4.104000000000E-01
	O47	O	4.104000000000E-01	-3.299000000000E-01	-4.763000000000E-01
	O48	O	-1.701000000000E-01	2.403000000000E-01	-1.464000000000E-01
	Si49	Si	-2.866000000000E-01	-2.134000000000E-01	2.500000000000E-01
	Si50	Si	3.660000000000E-02	4.634000000000E-01	2.500000000000E-01
	Si51	Si	-2.134000000000E-01	3.660000000000E-02	7.320000000000E-02
	Si52	Si	4.634000000000E-01	-2.866000000000E-01	4.268000000000E-01
	Si53	Si	2.500000000000E-01	-2.866000000000E-01	-2.134000000000E-01
	Si54	Si	-2.134000000000E-01	2.500000000000E-01	-2.866000000000E-01
	Si55	Si	4.268000000000E-01	4.634000000000E-01	-2.866000000000E-01
	Si56	Si	4.634000000000E-01	2.500000000000E-01	3.660000000000E-02
	Si57	Si	2.500000000000E-01	3.660000000000E-02	4.634000000000E-01
	Si58	Si	3.660000000000E-02	7.320000000000E-02	-2.134000000000E-01
	Si59	Si	7.320000000000E-02	-2.134000000000E-01	3.660000000000E-02
	Si60	Si	-2.866000000000E-01	4.268000000000E-01	4.634000000000E-01
	Si61	Si	2.866000000000E-01	2.134000000000E-01	-2.500000000000E-01
	Si62	Si	-3.660000000000E-02	-4.634000000000E-01	-2.500000000000E-01
	Si63	Si	2.134000000000E-01	-3.660000000000E-02	-7.320000000000E-02
	Si64	Si	-4.634000000000E-01	2.866000000000E-01	-4.268000000000E-01
	Si65	Si	-2.500000000000E-01	2.866000000000E-01	2.134000000000E-01
	Si66	Si	2.134000000000E-01	-2.500000000000E-01	2.866000000000E-01
	Si67	Si	-4.268000000000E-01	-4.634000000000E-01	2.866000000000E-01
	Si68	Si	-4.634000000000E-01	-2.500000000000E-01	-3.660000000000E-02
	Si69	Si	-2.500000000000E-01	-3.660000000000E-02	-4.634000000000E-01
	Si70	Si	-3.660000000000E-02	-7.320000000000E-02	2.134000000000E-01
	Si71	Si	-7.320000000000E-02	2.134000000000E-01	-3.660000000000E-02
	Si72	Si	2.866000000000E-01	-4.268000000000E-01	-4.634000000000E-01


data_ APC
_chemical_name_common		'APC'
_cell_length_a		10.67134949
_cell_length_b		10.67134949
_cell_length_c		20.78400000
_cell_angle_alpha		90.000000
_cell_angle_beta		90.000000
_cell_angle_gamma		49.835278
_space group_name_H-M_alt		'P 1'
_space_group_IT_number		1

loop_
	_atom_site_label
	_atom_site_type_symbol
	_atom_site_fract_x
	_atom_site_fract_y
	_atom_site_fract_z
	O1	O	-2.538000000000E-01	2.538000000000E-01	2.500000000000E-01
	O2	O	-2.462000000000E-01	2.462000000000E-01	-1.497818206817E-17
	O3	O	2.538000000000E-01	-2.538000000000E-01	2.500000000000E-01
	O4	O	2.462000000000E-01	-2.462000000000E-01	-1.110223024625E-16
	O5	O	-2.710000000000E-01	2.290000000000E-01	1.250000000000E-01
	O6	O	-2.290000000000E-01	2.710000000000E-01	-1.250000000000E-01
	O7	O	2.710000000000E-01	-2.290000000000E-01	-1.250000000000E-01
	O8	O	2.290000000000E-01	-2.710000000000E-01	1.250000000000E-01
	O9	O	-4.188000000000E-01	1.678000000000E-01	2.039500000000E-01
	O10	O	-8.120000000000E-02	3.322000000000E-01	-4.605000000000E-02
	O11	O	-1.678000000000E-01	4.188000000000E-01	-2.039500000000E-01
	O12	O	-3.322000000000E-01	8.120000000000E-02	4.605000000000E-02
	O13	O	4.188000000000E-01	-1.678000000000E-01	-2.039500000000E-01
	O14	O	8.120000000000E-02	-3.322000000000E-01	4.605000000000E-02
	O15	O	1.678000000000E-01	-4.188000000000E-01	2.039500000000E-01
	O16	O	3.322000000000E-01	-8.120000000000E-02	-4.605000000000E-02
	O17	O	4.692000000000E-01	4.692000000000E-01	1.890000000000E-01
	O18	O	3.080000000000E-02	3.080000000000E-02	-6.100000000000E-02
	O19	O	-4.692000000000E-01	-4.692000000000E-01	-1.890000000000E-01
	O20	O	-3.080000000000E-02	-3.080000000000E-02	6.100000000000E-02
	O21	O	-4.795000000000E-01	2.050000000000E-02	1.250000000000E-01
	O22	O	-2.050000000000E-02	4.795000000000E-01	-1.250000000000E-01
	O23	O	4.795000000000E-01	-2.050000000000E-02	-1.250000000000E-01
	O24	O	2.050000000000E-02	-4.795000000000E-01	1.250000000000E-01
	O25	O	-5.000000000000E-01	1.036192339221E-18	0.000000000000E+00
	O26	O	3.276215017939E-17	-5.000000000000E-01	2.500000000000E-01
	O27	O	3.276215017939E-17	-5.000000000000E-01	0.000000000000E+00
	O28	O	-5.000000000000E-01	1.051114866382E-16	2.500000000000E-01
	O29	O	-2.207000000000E-01	-2.207000000000E-01	5.980000000000E-02
	O30	O	-2.793000000000E-01	-2.793000000000E-01	-1.902000000000E-01
	O31	O	2.207000000000E-01	2.207000000000E-01	-5.980000000000E-02
	O32	O	2.793000000000E-01	2.793000000000E-01	1.902000000000E-01
	Si33	Si	-3.685000000000E-01	2.791000000000E-01	1.920000000000E-01
	Si34	Si	-1.315000000000E-01	2.209000000000E-01	-5.800000000000E-02
	Si35	Si	-2.791000000000E-01	3.685000000000E-01	-1.920000000000E-01
	Si36	Si	-2.209000000000E-01	1.315000000000E-01	5.800000000000E-02
	Si37	Si	3.685000000000E-01	-2.791000000000E-01	-1.920000000000E-01
	Si38	Si	1.315000000000E-01	-2.209000000000E-01	5.800000000000E-02
	Si39	Si	2.791000000000E-01	-3.685000000000E-01	1.920000000000E-01
	Si40	Si	2.209000000000E-01	-1.315000000000E-01	-5.800000000000E-02
	Si41	Si	-3.827000000000E-01	-3.030000000000E-02	5.770000000000E-02
	Si42	Si	-1.173000000000E-01	-4.697000000000E-01	-1.923000000000E-01
	Si43	Si	3.030000000000E-02	3.827000000000E-01	-5.770000000000E-02
	Si44	Si	4.697000000000E-01	1.173000000000E-01	1.923000000000E-01
	Si45	Si	3.827000000000E-01	3.030000000000E-02	-5.770000000000E-02
	Si46	Si	1.173000000000E-01	4.697000000000E-01	1.923000000000E-01
	Si47	Si	-3.030000000000E-02	-3.827000000000E-01	5.770000000000E-02
	Si48	Si	-4.697000000000E-01	-1.173000000000E-01	-1.923000000000E-01
	O49	O	-2.462000000000E-01	2.462000000000E-01	-5.000000000000E-01
	O50	O	-5.000000000000E-01	1.036192339221E-18	-5.000000000000E-01
	O51	O	4.188000000000E-01	-1.678000000000E-01	2.960500000000E-01
	O52	O	3.276215017939E-17	-5.000000000000E-01	-2.500000000000E-01
	O53	O	2.710000000000E-01	-2.290000000000E-01	3.750000000000E-01
	O54	O	3.276215017939E-17	-5.000000000000E-01	-5.000000000000E-01
	O55	O	8.120000000000E-02	-3.322000000000E-01	-4.539500000000E-01
	O56	O	-5.000000000000E-01	1.051114866382E-16	-2.500000000000E-01
	O57	O	2.462000000000E-01	-2.462000000000E-01	-5.000000000000E-01
	O58	O	-2.207000000000E-01	-2.207000000000E-01	-4.402000000000E-01
	O59	O	1.678000000000E-01	-4.188000000000E-01	-2.960500000000E-01
	O60	O	-2.793000000000E-01	-2.793000000000E-01	3.098000000000E-01
	O61	O	2.290000000000E-01	-2.710000000000E-01	-3.750000000000E-01
	O62	O	2.207000000000E-01	2.207000000000E-01	4.402000000000E-01
	O63	O	3.322000000000E-01	-8.120000000000E-02	4.539500000000E-01
	O64	O	2.793000000000E-01	2.793000000000E-01	-3.098000000000E-01
	O65	O	-2.538000000000E-01	2.538000000000E-01	-2.500000000000E-01
	Si66	Si	-3.685000000000E-01	2.791000000000E-01	-3.080000000000E-01
	O67	O	4.692000000000E-01	4.692000000000E-01	-3.110000000000E-01
	Si68	Si	-1.315000000000E-01	2.209000000000E-01	4.420000000000E-01
	O69	O	-4.188000000000E-01	1.678000000000E-01	-2.960500000000E-01
	Si70	Si	-2.791000000000E-01	3.685000000000E-01	3.080000000000E-01
	O71	O	3.080000000000E-02	3.080000000000E-02	4.390000000000E-01
	Si72	Si	-2.209000000000E-01	1.315000000000E-01	-4.420000000000E-01
	O73	O	-2.710000000000E-01	2.290000000000E-01	-3.750000000000E-01
	Si74	Si	3.685000000000E-01	-2.791000000000E-01	3.080000000000E-01
	O75	O	-4.692000000000E-01	-4.692000000000E-01	3.110000000000E-01
	Si76	Si	1.315000000000E-01	-2.209000000000E-01	-4.420000000000E-01
	O77	O	-8.120000000000E-02	3.322000000000E-01	4.539500000000E-01
	Si78	Si	2.791000000000E-01	-3.685000000000E-01	-3.080000000000E-01
	O79	O	-3.080000000000E-02	-3.080000000000E-02	-4.390000000000E-01
	Si80	Si	2.209000000000E-01	-1.315000000000E-01	4.420000000000E-01
	O81	O	2.538000000000E-01	-2.538000000000E-01	-2.500000000000E-01
	Si82	Si	-3.827000000000E-01	-3.030000000000E-02	-4.423000000000E-01
	O83	O	-4.795000000000E-01	2.050000000000E-02	-3.750000000000E-01
	Si84	Si	-1.173000000000E-01	-4.697000000000E-01	3.077000000000E-01
	O85	O	-1.678000000000E-01	4.188000000000E-01	2.960500000000E-01
	Si86	Si	3.030000000000E-02	3.827000000000E-01	4.423000000000E-01
	O87	O	-2.050000000000E-02	4.795000000000E-01	3.750000000000E-01
	Si88	Si	4.697000000000E-01	1.173000000000E-01	-3.077000000000E-01
	O89	O	-2.290000000000E-01	2.710000000000E-01	3.750000000000E-01
	Si90	Si	3.827000000000E-01	3.030000000000E-02	4.423000000000E-01
	O91	O	4.795000000000E-01	-2.050000000000E-02	3.750000000000E-01
	Si92	Si	1.173000000000E-01	4.697000000000E-01	-3.077000000000E-01
	O93	O	-3.322000000000E-01	8.120000000000E-02	-4.539500000000E-01
	Si94	Si	-3.030000000000E-02	-3.827000000000E-01	-4.423000000000E-01
	O95	O	2.050000000000E-02	-4.795000000000E-01	-3.750000000000E-01
	Si96	Si	-4.697000000000E-01	-1.173000000000E-01	3.077000000000E-01



data_ ASV
_chemical_name_common		'ASV'
_cell_length_a		8.67400000
_cell_length_b		8.67400000
_cell_length_c		27.83800000
_cell_angle_alpha		90.000000
_cell_angle_beta		90.000000
_cell_angle_gamma		90.000000
_space group_name_H-M_alt		'P 1'
_space_group_IT_number		1

loop_
	_atom_site_label
	_atom_site_type_symbol
	_atom_site_fract_x
	_atom_site_fract_y
	_atom_site_fract_z
	O1	O	1.089000000000E-01	-3.926000000000E-01	1.589000000000E-01
	O2	O	-1.089000000000E-01	3.926000000000E-01	1.589000000000E-01
	O3	O	1.089000000000E-01	3.926000000000E-01	9.110000000000E-02
	O4	O	-1.089000000000E-01	-3.926000000000E-01	9.110000000000E-02
	O5	O	3.926000000000E-01	-1.089000000000E-01	9.110000000000E-02
	O6	O	-3.926000000000E-01	1.089000000000E-01	9.110000000000E-02
	O7	O	-3.926000000000E-01	-1.089000000000E-01	1.589000000000E-01
	O8	O	3.926000000000E-01	1.089000000000E-01	1.589000000000E-01
	O9	O	-1.089000000000E-01	3.926000000000E-01	-1.589000000000E-01
	O10	O	1.089000000000E-01	-3.926000000000E-01	-1.589000000000E-01
	O11	O	-1.089000000000E-01	-3.926000000000E-01	-9.110000000000E-02
	O12	O	1.089000000000E-01	3.926000000000E-01	-9.110000000000E-02
	O13	O	-3.926000000000E-01	1.089000000000E-01	-9.110000000000E-02
	O14	O	3.926000000000E-01	-1.089000000000E-01	-9.110000000000E-02
	O15	O	3.926000000000E-01	1.089000000000E-01	-1.589000000000E-01
	O16	O	-3.926000000000E-01	-1.089000000000E-01	-1.589000000000E-01
	O17	O	1.985000000000E-01	4.155000000000E-01	0.000000000000E+00
	O18	O	-1.985000000000E-01	-4.155000000000E-01	0.000000000000E+00
	O19	O	1.985000000000E-01	-4.155000000000E-01	2.500000000000E-01
	O20	O	-1.985000000000E-01	4.155000000000E-01	2.500000000000E-01
	O21	O	-4.155000000000E-01	-1.985000000000E-01	2.500000000000E-01
	O22	O	4.155000000000E-01	1.985000000000E-01	2.500000000000E-01
	O23	O	4.155000000000E-01	-1.985000000000E-01	0.000000000000E+00
	O24	O	-4.155000000000E-01	1.985000000000E-01	0.000000000000E+00
	O25	O	3.938000000000E-01	3.110000000000E-01	6.605000000000E-02
	O26	O	-3.938000000000E-01	-3.110000000000E-01	6.605000000000E-02
	O27	O	3.938000000000E-01	-3.110000000000E-01	1.839500000000E-01
	O28	O	-3.938000000000E-01	3.110000000000E-01	1.839500000000E-01
	O29	O	-3.110000000000E-01	-3.938000000000E-01	1.839500000000E-01
	O30	O	3.110000000000E-01	3.938000000000E-01	1.839500000000E-01
	O31	O	3.110000000000E-01	-3.938000000000E-01	6.605000000000E-02
	O32	O	-3.110000000000E-01	3.938000000000E-01	6.605000000000E-02
	O33	O	-3.938000000000E-01	-3.110000000000E-01	-6.605000000000E-02
	O34	O	3.938000000000E-01	3.110000000000E-01	-6.605000000000E-02
	O35	O	-3.938000000000E-01	3.110000000000E-01	-1.839500000000E-01
	O36	O	3.938000000000E-01	-3.110000000000E-01	-1.839500000000E-01
	O37	O	3.110000000000E-01	3.938000000000E-01	-1.839500000000E-01
	O38	O	-3.110000000000E-01	-3.938000000000E-01	-1.839500000000E-01
	O39	O	-3.110000000000E-01	3.938000000000E-01	-6.605000000000E-02
	O40	O	3.110000000000E-01	-3.938000000000E-01	-6.605000000000E-02
	Si41	Si	2.534000000000E-01	4.308000000000E-01	5.570000000000E-02
	Si42	Si	-2.534000000000E-01	-4.308000000000E-01	5.570000000000E-02
	Si43	Si	2.534000000000E-01	-4.308000000000E-01	1.943000000000E-01
	Si44	Si	-2.534000000000E-01	4.308000000000E-01	1.943000000000E-01
	Si45	Si	-4.308000000000E-01	-2.534000000000E-01	1.943000000000E-01
	Si46	Si	4.308000000000E-01	2.534000000000E-01	1.943000000000E-01
	Si47	Si	4.308000000000E-01	-2.534000000000E-01	5.570000000000E-02
	Si48	Si	-4.308000000000E-01	2.534000000000E-01	5.570000000000E-02
	Si49	Si	-2.534000000000E-01	-4.308000000000E-01	-5.570000000000E-02
	Si50	Si	2.534000000000E-01	4.308000000000E-01	-5.570000000000E-02
	Si51	Si	-2.534000000000E-01	4.308000000000E-01	-1.943000000000E-01
	Si52	Si	2.534000000000E-01	-4.308000000000E-01	-1.943000000000E-01
	Si53	Si	4.308000000000E-01	2.534000000000E-01	-1.943000000000E-01
	Si54	Si	-4.308000000000E-01	-2.534000000000E-01	-1.943000000000E-01
	Si55	Si	-4.308000000000E-01	2.534000000000E-01	-5.570000000000E-02
	Si56	Si	4.308000000000E-01	-2.534000000000E-01	-5.570000000000E-02
	Si57	Si	0.000000000000E+00	5.000000000000E-01	1.250000000000E-01
	Si58	Si	5.000000000000E-01	0.000000000000E+00	1.250000000000E-01
	Si59	Si	0.000000000000E+00	5.000000000000E-01	-1.250000000000E-01
	Si60	Si	5.000000000000E-01	0.000000000000E+00	-1.250000000000E-01
	O61	O	3.926000000000E-01	1.089000000000E-01	-3.411000000000E-01
	O62	O	3.110000000000E-01	-3.938000000000E-01	-4.339500000000E-01
	O63	O	-3.926000000000E-01	-1.089000000000E-01	3.411000000000E-01
	O64	O	-3.110000000000E-01	3.938000000000E-01	-4.339500000000E-01
	O65	O	1.089000000000E-01	-3.926000000000E-01	-3.411000000000E-01
	O66	O	-3.938000000000E-01	-3.110000000000E-01	4.339500000000E-01
	O67	O	1.985000000000E-01	4.155000000000E-01	-5.000000000000E-01
	O68	O	3.938000000000E-01	3.110000000000E-01	4.339500000000E-01
	O69	O	-1.089000000000E-01	3.926000000000E-01	3.411000000000E-01
	O70	O	-3.938000000000E-01	3.110000000000E-01	3.160500000000E-01
	O71	O	-1.985000000000E-01	-4.155000000000E-01	-5.000000000000E-01
	O72	O	3.938000000000E-01	-3.110000000000E-01	3.160500000000E-01
	O73	O	3.926000000000E-01	-1.089000000000E-01	-4.089000000000E-01
	O74	O	3.110000000000E-01	3.938000000000E-01	3.160500000000E-01
	O75	O	1.985000000000E-01	-4.155000000000E-01	-2.500000000000E-01
	O76	O	-3.110000000000E-01	-3.938000000000E-01	3.160500000000E-01
	O77	O	1.089000000000E-01	-3.926000000000E-01	3.411000000000E-01
	O78	O	-3.110000000000E-01	3.938000000000E-01	4.339500000000E-01
	O79	O	-1.985000000000E-01	4.155000000000E-01	-2.500000000000E-01
	O80	O	3.110000000000E-01	-3.938000000000E-01	4.339500000000E-01
	O81	O	1.089000000000E-01	3.926000000000E-01	-4.089000000000E-01
	Si82	Si	2.534000000000E-01	4.308000000000E-01	-4.443000000000E-01
	O83	O	-4.155000000000E-01	-1.985000000000E-01	-2.500000000000E-01
	Si84	Si	-2.534000000000E-01	-4.308000000000E-01	-4.443000000000E-01
	O85	O	-1.089000000000E-01	-3.926000000000E-01	4.089000000000E-01
	Si86	Si	2.534000000000E-01	-4.308000000000E-01	-3.057000000000E-01
	O87	O	4.155000000000E-01	1.985000000000E-01	-2.500000000000E-01
	Si88	Si	-2.534000000000E-01	4.308000000000E-01	-3.057000000000E-01
	O89	O	-3.926000000000E-01	1.089000000000E-01	-4.089000000000E-01
	Si90	Si	-4.308000000000E-01	-2.534000000000E-01	-3.057000000000E-01
	O91	O	4.155000000000E-01	-1.985000000000E-01	-5.000000000000E-01
	Si92	Si	4.308000000000E-01	2.534000000000E-01	-3.057000000000E-01
	O93	O	1.089000000000E-01	3.926000000000E-01	4.089000000000E-01
	Si94	Si	4.308000000000E-01	-2.534000000000E-01	-4.443000000000E-01
	O95	O	-4.155000000000E-01	1.985000000000E-01	-5.000000000000E-01
	Si96	Si	-4.308000000000E-01	2.534000000000E-01	-4.443000000000E-01
	O97	O	-1.089000000000E-01	3.926000000000E-01	-3.411000000000E-01
	Si98	Si	-2.534000000000E-01	-4.308000000000E-01	4.443000000000E-01
	O99	O	3.938000000000E-01	3.110000000000E-01	-4.339500000000E-01
	Si100	Si	2.534000000000E-01	4.308000000000E-01	4.443000000000E-01
	O101	O	-3.926000000000E-01	1.089000000000E-01	4.089000000000E-01
	Si102	Si	-2.534000000000E-01	4.308000000000E-01	3.057000000000E-01
	O103	O	-3.938000000000E-01	-3.110000000000E-01	-4.339500000000E-01
	Si104	Si	2.534000000000E-01	-4.308000000000E-01	3.057000000000E-01
	O105	O	-3.926000000000E-01	-1.089000000000E-01	-3.411000000000E-01
	Si106	Si	4.308000000000E-01	2.534000000000E-01	3.057000000000E-01
	O107	O	3.938000000000E-01	-3.110000000000E-01	-3.160500000000E-01
	Si108	Si	-4.308000000000E-01	-2.534000000000E-01	3.057000000000E-01
	O109	O	3.926000000000E-01	-1.089000000000E-01	4.089000000000E-01
	Si110	Si	-4.308000000000E-01	2.534000000000E-01	4.443000000000E-01
	O111	O	-3.938000000000E-01	3.110000000000E-01	-3.160500000000E-01
	Si112	Si	4.308000000000E-01	-2.534000000000E-01	4.443000000000E-01
	O113	O	-1.089000000000E-01	-3.926000000000E-01	-4.089000000000E-01
	Si114	Si	0.000000000000E+00	5.000000000000E-01	-3.750000000000E-01
	O115	O	-3.110000000000E-01	-3.938000000000E-01	-3.160500000000E-01
	Si116	Si	5.000000000000E-01	0.000000000000E+00	-3.750000000000E-01
	O117	O	3.926000000000E-01	1.089000000000E-01	3.411000000000E-01
	Si118	Si	0.000000000000E+00	5.000000000000E-01	3.750000000000E-01
	O119	O	3.110000000000E-01	3.938000000000E-01	-3.160500000000E-01
	Si120	Si	5.000000000000E-01	0.000000000000E+00	3.750000000000E-01


data_ ATS
_chemical_name_common		'ATS'
_cell_length_a		25.28161292
_cell_length_b		12.64080646
_cell_length_c		5.25700000
_cell_angle_alpha		90.000000
_cell_angle_beta		90.000000
_cell_angle_gamma		62.757714
_space group_name_H-M_alt		'P 1'
_space_group_IT_number		1

loop_
	_atom_site_label
	_atom_site_type_symbol
	_atom_site_fract_x
	_atom_site_fract_y
	_atom_site_fract_z
	O1	O	-1.051000000000E-01	4.126000000000E-01	-2.500000000000E-01
	O2	O	1.051000000000E-01	-4.126000000000E-01	2.500000000000E-01
	O3	O	-2.063000000000E-01	2.102000000000E-01	2.500000000000E-01
	O4	O	2.063000000000E-01	-2.102000000000E-01	-2.500000000000E-01
	O5	O	-1.794500000000E-01	3.589000000000E-01	-5.000000000000E-01
	O6	O	1.794500000000E-01	-3.589000000000E-01	-1.110223024625E-16
	O7	O	1.794500000000E-01	-3.589000000000E-01	-5.000000000000E-01
	O8	O	-1.794500000000E-01	3.589000000000E-01	2.220446049250E-16
	O9	O	-2.194000000000E-01	-4.388000000000E-01	-2.500000000000E-01
	O10	O	-2.806000000000E-01	4.388000000000E-01	2.500000000000E-01
	O11	O	2.830000000000E-01	-1.630000000000E-01	0.000000000000E+00
	O12	O	-2.830000000000E-01	1.630000000000E-01	-5.000000000000E-01
	O13	O	8.150000000000E-02	4.340000000000E-01	0.000000000000E+00
	O14	O	-8.150000000000E-02	-4.340000000000E-01	-5.000000000000E-01
	O15	O	-2.830000000000E-01	1.630000000000E-01	0.000000000000E+00
	O16	O	2.830000000000E-01	-1.630000000000E-01	-5.000000000000E-01
	O17	O	-8.150000000000E-02	-4.340000000000E-01	0.000000000000E+00
	O18	O	8.150000000000E-02	4.340000000000E-01	-5.000000000000E-01
	O19	O	1.950500000000E-01	7.100000000000E-03	-2.500000000000E-01
	O20	O	-1.950500000000E-01	-7.100000000000E-03	2.500000000000E-01
	O21	O	-3.550000000000E-03	-3.901000000000E-01	2.500000000000E-01
	O22	O	3.550000000000E-03	3.901000000000E-01	-2.500000000000E-01
	O23	O	-1.166000000000E-01	-2.332000000000E-01	2.500000000000E-01
	O24	O	1.166000000000E-01	2.332000000000E-01	-2.500000000000E-01
	Si25	Si	-1.710500000000E-01	4.231000000000E-01	-2.500000000000E-01
	Si26	Si	1.710500000000E-01	-4.231000000000E-01	2.500000000000E-01
	Si27	Si	-2.115500000000E-01	3.421000000000E-01	2.500000000000E-01
	Si28	Si	2.115500000000E-01	-3.421000000000E-01	-2.500000000000E-01
	Si29	Si	2.418500000000E-01	-1.321000000000E-01	-2.500000000000E-01
	Si30	Si	-2.418500000000E-01	1.321000000000E-01	2.500000000000E-01
	Si31	Si	6.605000000000E-02	-4.837000000000E-01	2.500000000000E-01
	Si32	Si	-6.605000000000E-02	4.837000000000E-01	-2.500000000000E-01
	Si33	Si	-7.065000000000E-02	-3.731000000000E-01	2.500000000000E-01
	Si34	Si	7.065000000000E-02	3.731000000000E-01	-2.500000000000E-01
	Si35	Si	1.865500000000E-01	1.413000000000E-01	-2.500000000000E-01
	Si36	Si	-1.865500000000E-01	-1.413000000000E-01	2.500000000000E-01
	O37	O	3.205500000000E-01	3.589000000000E-01	-5.000000000000E-01
	O38	O	-3.049500000000E-01	7.100000000000E-03	-2.500000000000E-01
	O39	O	2.194000000000E-01	4.388000000000E-01	2.500000000000E-01
	O40	O	3.049500000000E-01	-7.100000000000E-03	2.500000000000E-01
	O41	O	2.937000000000E-01	2.102000000000E-01	2.500000000000E-01
	O42	O	4.964500000000E-01	-3.901000000000E-01	2.500000000000E-01
	O43	O	-2.170000000000E-01	-1.630000000000E-01	0.000000000000E+00
	O44	O	-4.964500000000E-01	3.901000000000E-01	-2.500000000000E-01
	O45	O	-3.205500000000E-01	-3.589000000000E-01	-1.110223024625E-16
	O46	O	3.834000000000E-01	-2.332000000000E-01	2.500000000000E-01
	O47	O	2.170000000000E-01	1.630000000000E-01	-5.000000000000E-01
	O48	O	-3.834000000000E-01	2.332000000000E-01	-2.500000000000E-01
	O49	O	-3.949000000000E-01	-4.126000000000E-01	2.500000000000E-01
	Si50	Si	3.289500000000E-01	4.231000000000E-01	-2.500000000000E-01
	O51	O	-4.185000000000E-01	4.340000000000E-01	0.000000000000E+00
	Si52	Si	-3.289500000000E-01	-4.231000000000E-01	2.500000000000E-01
	O53	O	-3.205500000000E-01	-3.589000000000E-01	-5.000000000000E-01
	Si54	Si	2.884500000000E-01	3.421000000000E-01	2.500000000000E-01
	O55	O	4.185000000000E-01	-4.340000000000E-01	-5.000000000000E-01
	Si56	Si	-2.884500000000E-01	-3.421000000000E-01	-2.500000000000E-01
	O57	O	-2.937000000000E-01	-2.102000000000E-01	-2.500000000000E-01
	Si58	Si	-2.581500000000E-01	-1.321000000000E-01	-2.500000000000E-01
	O59	O	2.170000000000E-01	1.630000000000E-01	0.000000000000E+00
	Si60	Si	2.581500000000E-01	1.321000000000E-01	2.500000000000E-01
	O61	O	3.205500000000E-01	3.589000000000E-01	2.220446049250E-16
	Si62	Si	-4.339500000000E-01	-4.837000000000E-01	2.500000000000E-01
	O63	O	-2.170000000000E-01	-1.630000000000E-01	-5.000000000000E-01
	Si64	Si	4.339500000000E-01	4.837000000000E-01	-2.500000000000E-01
	O65	O	3.949000000000E-01	4.126000000000E-01	-2.500000000000E-01
	Si66	Si	4.293500000000E-01	-3.731000000000E-01	2.500000000000E-01
	O67	O	4.185000000000E-01	-4.340000000000E-01	0.000000000000E+00
	Si68	Si	-4.293500000000E-01	3.731000000000E-01	-2.500000000000E-01
	O69	O	2.806000000000E-01	-4.388000000000E-01	-2.500000000000E-01
	Si70	Si	-3.134500000000E-01	1.413000000000E-01	-2.500000000000E-01
	O71	O	-4.185000000000E-01	4.340000000000E-01	-5.000000000000E-01
	Si72	Si	3.134500000000E-01	-1.413000000000E-01	2.500000000000E-01


data_ ATV
_chemical_name_common		'ATV'
_cell_length_a		8.77533421
_cell_length_b		17.55066842
_cell_length_c		9.66100000
_cell_angle_alpha		90.000000
_cell_angle_beta		90.000000
_cell_angle_gamma		58.525225
_space group_name_H-M_alt		'P 1'
_space_group_IT_number		1

loop_
	_atom_site_label
	_atom_site_type_symbol
	_atom_site_fract_x
	_atom_site_fract_y
	_atom_site_fract_z
	O1	O	3.751000000000E-01	-6.245000000000E-02	-5.000000000000E-01
	O2	O	1.249000000000E-01	-1.875500000000E-01	-5.000000000000E-01
	O3	O	-3.751000000000E-01	6.245000000000E-02	-5.000000000000E-01
	O4	O	-1.249000000000E-01	1.875500000000E-01	-5.000000000000E-01
	O5	O	4.140000000000E-01	-4.280000000000E-02	2.351000000000E-01
	O6	O	8.600000000000E-02	-2.072000000000E-01	2.351000000000E-01
	O7	O	8.560000000000E-02	-2.070000000000E-01	-2.351000000000E-01
	O8	O	4.144000000000E-01	-4.300000000000E-02	-2.351000000000E-01
	O9	O	-4.140000000000E-01	4.280000000000E-02	-2.351000000000E-01
	O10	O	-8.600000000000E-02	2.072000000000E-01	-2.351000000000E-01
	O11	O	-8.560000000000E-02	2.070000000000E-01	2.351000000000E-01
	O12	O	-4.144000000000E-01	4.300000000000E-02	2.351000000000E-01
	O13	O	2.500000000000E-01	-1.250000000000E-01	3.133000000000E-01
	O14	O	2.500000000000E-01	-1.250000000000E-01	-3.133000000000E-01
	O15	O	-2.500000000000E-01	1.250000000000E-01	-3.133000000000E-01
	O16	O	-2.500000000000E-01	1.250000000000E-01	3.133000000000E-01
	O17	O	9.630000000000E-02	4.815000000000E-02	3.498000000000E-01
	O18	O	4.037000000000E-01	2.018500000000E-01	3.498000000000E-01
	O19	O	-9.630000000000E-02	-4.815000000000E-02	-3.498000000000E-01
	O20	O	-4.037000000000E-01	2.981500000000E-01	-3.498000000000E-01
	O21	O	-2.500000000000E-01	-1.250000000000E-01	1.572000000000E-01
	O22	O	2.500000000000E-01	1.250000000000E-01	-1.572000000000E-01
	O23	O	-5.000000000000E-01	6.082861880981E-17	0.000000000000E+00
	O24	O	1.971955285905E-16	2.500000000000E-01	0.000000000000E+00
	Si25	Si	2.837000000000E-01	-4.555000000000E-02	3.497000000000E-01
	Si26	Si	2.163000000000E-01	-2.044500000000E-01	3.497000000000E-01
	Si27	Si	9.110000000000E-02	-1.418500000000E-01	-3.497000000000E-01
	Si28	Si	4.089000000000E-01	-1.081500000000E-01	-3.497000000000E-01
	Si29	Si	-2.837000000000E-01	4.555000000000E-02	-3.497000000000E-01
	Si30	Si	-2.163000000000E-01	2.044500000000E-01	-3.497000000000E-01
	Si31	Si	-9.110000000000E-02	1.418500000000E-01	3.497000000000E-01
	Si32	Si	-4.089000000000E-01	1.081500000000E-01	3.497000000000E-01
	Si33	Si	-4.374000000000E-01	-3.130000000000E-02	1.568000000000E-01
	Si34	Si	-6.260000000000E-02	-2.187000000000E-01	1.568000000000E-01
	Si35	Si	6.260000000000E-02	2.187000000000E-01	-1.568000000000E-01
	Si36	Si	4.374000000000E-01	3.130000000000E-02	-1.568000000000E-01
	O37	O	4.140000000000E-01	4.572000000000E-01	2.351000000000E-01
	O38	O	-9.630000000000E-02	4.518500000000E-01	-3.498000000000E-01
	O39	O	-8.600000000000E-02	-2.928000000000E-01	-2.351000000000E-01
	O40	O	-4.037000000000E-01	-2.018500000000E-01	-3.498000000000E-01
	O41	O	-3.751000000000E-01	-4.375500000000E-01	-5.000000000000E-01
	O42	O	-2.500000000000E-01	3.750000000000E-01	1.572000000000E-01
	O43	O	-8.560000000000E-02	-2.930000000000E-01	2.351000000000E-01
	O44	O	2.500000000000E-01	-3.750000000000E-01	-1.572000000000E-01
	O45	O	8.600000000000E-02	2.928000000000E-01	2.351000000000E-01
	O46	O	5.000000000000E-01	-5.000000000000E-01	0.000000000000E+00
	O47	O	-4.144000000000E-01	-4.570000000000E-01	2.351000000000E-01
	O48	O	3.187725914304E-16	-2.500000000000E-01	0.000000000000E+00
	O49	O	1.249000000000E-01	3.124500000000E-01	-5.000000000000E-01
	Si50	Si	2.837000000000E-01	4.544500000000E-01	3.497000000000E-01
	O51	O	2.500000000000E-01	3.750000000000E-01	3.133000000000E-01
	Si52	Si	2.163000000000E-01	2.955500000000E-01	3.497000000000E-01
	O53	O	8.560000000000E-02	2.930000000000E-01	-2.351000000000E-01
	Si54	Si	9.110000000000E-02	3.581500000000E-01	-3.497000000000E-01
	O55	O	2.500000000000E-01	3.750000000000E-01	-3.133000000000E-01
	Si56	Si	4.089000000000E-01	3.918500000000E-01	-3.497000000000E-01
	O57	O	-1.249000000000E-01	-3.124500000000E-01	-5.000000000000E-01
	Si58	Si	-2.837000000000E-01	-4.544500000000E-01	-3.497000000000E-01
	O59	O	-2.500000000000E-01	-3.750000000000E-01	-3.133000000000E-01
	Si60	Si	-2.163000000000E-01	-2.955500000000E-01	-3.497000000000E-01
	O61	O	4.144000000000E-01	4.570000000000E-01	-2.351000000000E-01
	Si62	Si	-9.110000000000E-02	-3.581500000000E-01	3.497000000000E-01
	O63	O	-2.500000000000E-01	-3.750000000000E-01	3.133000000000E-01
	Si64	Si	-4.089000000000E-01	-3.918500000000E-01	3.497000000000E-01
	O65	O	3.751000000000E-01	4.375500000000E-01	-5.000000000000E-01
	Si66	Si	-4.374000000000E-01	4.687000000000E-01	1.568000000000E-01
	O67	O	9.630000000000E-02	-4.518500000000E-01	3.498000000000E-01
	Si68	Si	-6.260000000000E-02	2.813000000000E-01	1.568000000000E-01
	O69	O	-4.140000000000E-01	-4.572000000000E-01	-2.351000000000E-01
	Si70	Si	6.260000000000E-02	-2.813000000000E-01	-1.568000000000E-01
	O71	O	4.037000000000E-01	-2.981500000000E-01	3.498000000000E-01
	Si72	Si	4.374000000000E-01	-4.687000000000E-01	-1.568000000000E-01


data_ AVE
_chemical_name_common		'AVE'
_cell_length_a		21.52838713
_cell_length_b		21.52838713
_cell_length_c		21.52838713
_cell_angle_alpha		34.811988
_cell_angle_beta		34.811988
_cell_angle_gamma		34.811988
_space group_name_H-M_alt		'P 1'
_space_group_IT_number		1

loop_
	_atom_site_label
	_atom_site_type_symbol
	_atom_site_fract_x
	_atom_site_fract_y
	_atom_site_fract_z
	Si1	Si	2.634100000000E-01	2.591000000000E-02	-2.129100000000E-01
	Si2	Si	-2.129100000000E-01	2.634100000000E-01	2.591000000000E-02
	Si3	Si	2.591000000000E-02	-2.129100000000E-01	2.634100000000E-01
	Si4	Si	-2.591000000000E-02	-2.634100000000E-01	2.129100000000E-01
	Si5	Si	-2.634100000000E-01	2.129100000000E-01	-2.591000000000E-02
	Si6	Si	2.129100000000E-01	-2.591000000000E-02	-2.634100000000E-01
	Si7	Si	-2.634100000000E-01	-2.591000000000E-02	2.129100000000E-01
	Si8	Si	2.129100000000E-01	-2.634100000000E-01	-2.591000000000E-02
	Si9	Si	-2.591000000000E-02	2.129100000000E-01	-2.634100000000E-01
	Si10	Si	2.591000000000E-02	2.634100000000E-01	-2.129100000000E-01
	Si11	Si	2.634100000000E-01	-2.129100000000E-01	2.591000000000E-02
	Si12	Si	-2.129100000000E-01	2.591000000000E-02	2.634100000000E-01
	Si13	Si	3.637000000000E-01	-1.555700000000E-01	-3.974100000000E-01
	Si14	Si	-3.974100000000E-01	3.637000000000E-01	-1.555700000000E-01
	Si15	Si	-1.555700000000E-01	-3.974100000000E-01	3.637000000000E-01
	Si16	Si	1.555700000000E-01	-3.637000000000E-01	3.974100000000E-01
	Si17	Si	-3.637000000000E-01	3.974100000000E-01	1.555700000000E-01
	Si18	Si	3.974100000000E-01	1.555700000000E-01	-3.637000000000E-01
	Si19	Si	-3.637000000000E-01	1.555700000000E-01	3.974100000000E-01
	Si20	Si	3.974100000000E-01	-3.637000000000E-01	1.555700000000E-01
	Si21	Si	1.555700000000E-01	3.974100000000E-01	-3.637000000000E-01
	Si22	Si	-1.555700000000E-01	3.637000000000E-01	-3.974100000000E-01
	Si23	Si	3.637000000000E-01	-3.974100000000E-01	-1.555700000000E-01
	Si24	Si	-3.974100000000E-01	-1.555700000000E-01	3.637000000000E-01
	Si25	Si	-4.677500000000E-01	1.157000000000E-02	-2.328700000000E-01
	Si26	Si	-2.328700000000E-01	-4.677500000000E-01	1.157000000000E-02
	Si27	Si	1.157000000000E-02	-2.328700000000E-01	-4.677500000000E-01
	Si28	Si	-1.157000000000E-02	4.677500000000E-01	2.328700000000E-01
	Si29	Si	4.677500000000E-01	2.328700000000E-01	-1.157000000000E-02
	Si30	Si	2.328700000000E-01	-1.157000000000E-02	4.677500000000E-01
	Si31	Si	4.677500000000E-01	-1.157000000000E-02	2.328700000000E-01
	Si32	Si	2.328700000000E-01	4.677500000000E-01	-1.157000000000E-02
	Si33	Si	-1.157000000000E-02	2.328700000000E-01	4.677500000000E-01
	Si34	Si	1.157000000000E-02	-4.677500000000E-01	-2.328700000000E-01
	Si35	Si	-4.677500000000E-01	-2.328700000000E-01	1.157000000000E-02
	Si36	Si	-2.328700000000E-01	1.157000000000E-02	-4.677500000000E-01
	Si37	Si	2.866000000000E-01	-2.352900000000E-01	-4.749800000000E-01
	Si38	Si	-4.749800000000E-01	2.866000000000E-01	-2.352900000000E-01
	Si39	Si	-2.352900000000E-01	-4.749800000000E-01	2.866000000000E-01
	Si40	Si	2.352900000000E-01	-2.866000000000E-01	4.749800000000E-01
	Si41	Si	-2.866000000000E-01	4.749800000000E-01	2.352900000000E-01
	Si42	Si	4.749800000000E-01	2.352900000000E-01	-2.866000000000E-01
	Si43	Si	-2.866000000000E-01	2.352900000000E-01	4.749800000000E-01
	Si44	Si	4.749800000000E-01	-2.866000000000E-01	2.352900000000E-01
	Si45	Si	2.352900000000E-01	4.749800000000E-01	-2.866000000000E-01
	Si46	Si	-2.352900000000E-01	2.866000000000E-01	-4.749800000000E-01
	Si47	Si	2.866000000000E-01	-4.749800000000E-01	-2.352900000000E-01
	Si48	Si	-4.749800000000E-01	-2.352900000000E-01	2.866000000000E-01
	O49	O	1.276600000000E-01	-1.684400000000E-01	1.276600000000E-01
	O50	O	1.276600000000E-01	1.276600000000E-01	-1.684400000000E-01
	O51	O	-1.684400000000E-01	1.276600000000E-01	1.276600000000E-01
	O52	O	1.684400000000E-01	-1.276600000000E-01	-1.276600000000E-01
	O53	O	-1.276600000000E-01	-1.276600000000E-01	1.684400000000E-01
	O54	O	-1.276600000000E-01	1.684400000000E-01	-1.276600000000E-01
	O55	O	3.599600000000E-01	7.488000000000E-02	-3.127700000000E-01
	O56	O	-3.127700000000E-01	3.599600000000E-01	7.488000000000E-02
	O57	O	7.488000000000E-02	-3.127700000000E-01	3.599600000000E-01
	O58	O	-7.488000000000E-02	-3.599600000000E-01	3.127700000000E-01
	O59	O	-3.599600000000E-01	3.127700000000E-01	-7.488000000000E-02
	O60	O	3.127700000000E-01	-7.488000000000E-02	-3.599600000000E-01
	O61	O	-3.599600000000E-01	-7.488000000000E-02	3.127700000000E-01
	O62	O	3.127700000000E-01	-3.599600000000E-01	-7.488000000000E-02
	O63	O	-7.488000000000E-02	3.127700000000E-01	-3.599600000000E-01
	O64	O	7.488000000000E-02	3.599600000000E-01	-3.127700000000E-01
	O65	O	3.599600000000E-01	-3.127700000000E-01	7.488000000000E-02
	O66	O	-3.127700000000E-01	7.488000000000E-02	3.599600000000E-01
	O67	O	-2.735400000000E-01	2.735400000000E-01	3.600509143032E-17
	O68	O	-3.657717324356E-17	-2.735400000000E-01	2.735400000000E-01
	O69	O	2.735400000000E-01	-4.326472285727E-17	-2.735400000000E-01
	O70	O	2.735400000000E-01	-2.735400000000E-01	-3.604316492225E-17
	O71	O	3.657717324356E-17	2.735400000000E-01	-2.735400000000E-01
	O72	O	-2.735400000000E-01	4.326472285727E-17	2.735400000000E-01
	O73	O	-9.801000000000E-02	2.924700000000E-01	-9.801000000000E-02
	O74	O	-9.801000000000E-02	-9.801000000000E-02	2.924700000000E-01
	O75	O	2.924700000000E-01	-9.801000000000E-02	-9.801000000000E-02
	O76	O	-2.924700000000E-01	9.801000000000E-02	9.801000000000E-02
	O77	O	9.801000000000E-02	9.801000000000E-02	-2.924700000000E-01
	O78	O	9.801000000000E-02	-2.924700000000E-01	9.801000000000E-02
	O79	O	2.876200000000E-01	-7.857000000000E-02	-4.572200000000E-01
	O80	O	-4.572200000000E-01	2.876200000000E-01	-7.857000000000E-02
	O81	O	-7.857000000000E-02	-4.572200000000E-01	2.876200000000E-01
	O82	O	7.857000000000E-02	-2.876200000000E-01	4.572200000000E-01
	O83	O	-2.876200000000E-01	4.572200000000E-01	7.857000000000E-02
	O84	O	4.572200000000E-01	7.857000000000E-02	-2.876200000000E-01
	O85	O	-2.876200000000E-01	7.857000000000E-02	4.572200000000E-01
	O86	O	4.572200000000E-01	-2.876200000000E-01	7.857000000000E-02
	O87	O	7.857000000000E-02	4.572200000000E-01	-2.876200000000E-01
	O88	O	-7.857000000000E-02	2.876200000000E-01	-4.572200000000E-01
	O89	O	2.876200000000E-01	-4.572200000000E-01	-7.857000000000E-02
	O90	O	-4.572200000000E-01	-7.857000000000E-02	2.876200000000E-01
	O91	O	-4.943400000000E-01	-1.902500000000E-01	-4.943400000000E-01
	O92	O	-4.943400000000E-01	-4.943400000000E-01	-1.902500000000E-01
	O93	O	-1.902500000000E-01	-4.943400000000E-01	-4.943400000000E-01
	O94	O	1.902500000000E-01	4.943400000000E-01	4.943400000000E-01
	O95	O	4.943400000000E-01	4.943400000000E-01	1.902500000000E-01
	O96	O	4.943400000000E-01	1.902500000000E-01	4.943400000000E-01
	O97	O	-2.781900000000E-01	3.478100000000E-01	-2.781900000000E-01
	O98	O	-2.781900000000E-01	-2.781900000000E-01	3.478100000000E-01
	O99	O	3.478100000000E-01	-2.781900000000E-01	-2.781900000000E-01
	O100	O	-3.478100000000E-01	2.781900000000E-01	2.781900000000E-01
	O101	O	2.781900000000E-01	2.781900000000E-01	-3.478100000000E-01
	O102	O	2.781900000000E-01	-3.478100000000E-01	2.781900000000E-01
	O103	O	-3.243000000000E-01	-3.583000000000E-02	-3.243000000000E-01
	O104	O	-3.243000000000E-01	-3.243000000000E-01	-3.583000000000E-02
	O105	O	-3.583000000000E-02	-3.243000000000E-01	-3.243000000000E-01
	O106	O	3.583000000000E-02	3.243000000000E-01	3.243000000000E-01
	O107	O	3.243000000000E-01	3.243000000000E-01	3.583000000000E-02
	O108	O	3.243000000000E-01	3.583000000000E-02	3.243000000000E-01
	O109	O	-1.014700000000E-01	-4.951400000000E-01	-1.014700000000E-01
	O110	O	-1.014700000000E-01	-1.014700000000E-01	-4.951400000000E-01
	O111	O	-4.951400000000E-01	-1.014700000000E-01	-1.014700000000E-01
	O112	O	4.951400000000E-01	1.014700000000E-01	1.014700000000E-01
	O113	O	1.014700000000E-01	1.014700000000E-01	4.951400000000E-01
	O114	O	1.014700000000E-01	4.951400000000E-01	1.014700000000E-01
	O115	O	4.902500000000E-01	1.061700000000E-01	-2.189000000000E-01
	O116	O	-2.189000000000E-01	4.902500000000E-01	1.061700000000E-01
	O117	O	1.061700000000E-01	-2.189000000000E-01	4.902500000000E-01
	O118	O	-1.061700000000E-01	-4.902500000000E-01	2.189000000000E-01
	O119	O	-4.902500000000E-01	2.189000000000E-01	-1.061700000000E-01
	O120	O	2.189000000000E-01	-1.061700000000E-01	-4.902500000000E-01
	O121	O	-4.902500000000E-01	-1.061700000000E-01	2.189000000000E-01
	O122	O	2.189000000000E-01	-4.902500000000E-01	-1.061700000000E-01
	O123	O	-1.061700000000E-01	2.189000000000E-01	-4.902500000000E-01
	O124	O	1.061700000000E-01	4.902500000000E-01	-2.189000000000E-01
	O125	O	4.902500000000E-01	-2.189000000000E-01	1.061700000000E-01
	O126	O	-2.189000000000E-01	1.061700000000E-01	4.902500000000E-01
	O127	O	4.288000000000E-01	-2.705300000000E-01	4.288000000000E-01
	O128	O	4.288000000000E-01	4.288000000000E-01	-2.705300000000E-01
	O129	O	-2.705300000000E-01	4.288000000000E-01	4.288000000000E-01
	O130	O	2.705300000000E-01	-4.288000000000E-01	-4.288000000000E-01
	O131	O	-4.288000000000E-01	-4.288000000000E-01	2.705300000000E-01
	O132	O	-4.288000000000E-01	2.705300000000E-01	-4.288000000000E-01
	O133	O	-3.385100000000E-01	2.730000000000E-01	-3.385100000000E-01
	O134	O	-3.385100000000E-01	-3.385100000000E-01	2.730000000000E-01
	O135	O	2.730000000000E-01	-3.385100000000E-01	-3.385100000000E-01
	O136	O	-2.730000000000E-01	3.385100000000E-01	3.385100000000E-01
	O137	O	3.385100000000E-01	3.385100000000E-01	-2.730000000000E-01
	O138	O	3.385100000000E-01	-2.730000000000E-01	3.385100000000E-01
	O139	O	2.251800000000E-01	-2.251800000000E-01	-5.000000000000E-01
	O140	O	-5.000000000000E-01	2.251800000000E-01	-2.251800000000E-01
	O141	O	-2.251800000000E-01	-5.000000000000E-01	2.251800000000E-01
	O142	O	-2.251800000000E-01	2.251800000000E-01	-5.000000000000E-01
	O143	O	-5.000000000000E-01	-2.251800000000E-01	2.251800000000E-01
	O144	O	2.251800000000E-01	-5.000000000000E-01	-2.251800000000E-01


data_ AVL
_chemical_name_common		'AVL'
_cell_length_a		13.23810000
_cell_length_b		13.23810000
_cell_length_c		17.48200000
_cell_angle_alpha		90.000000
_cell_angle_beta		90.000000
_cell_angle_gamma		120.000000
_space group_name_H-M_alt		'P 1'
_space_group_IT_number		1

loop_
	_atom_site_label
	_atom_site_type_symbol
	_atom_site_fract_x
	_atom_site_fract_y
	_atom_site_fract_z
	O1	O	1.155500000000E-01	-1.155500000000E-01	3.959000000000E-01
	O2	O	1.155500000000E-01	2.311000000000E-01	3.959000000000E-01
	O3	O	-2.311000000000E-01	-1.155500000000E-01	3.959000000000E-01
	O4	O	2.311000000000E-01	1.155500000000E-01	-3.959000000000E-01
	O5	O	-1.155500000000E-01	-2.311000000000E-01	-3.959000000000E-01
	O6	O	-1.155500000000E-01	1.155500000000E-01	-3.959000000000E-01
	O7	O	-2.700000000000E-03	3.317000000000E-01	3.549000000000E-01
	O8	O	-3.317000000000E-01	-3.344000000000E-01	3.549000000000E-01
	O9	O	3.344000000000E-01	2.700000000000E-03	3.549000000000E-01
	O10	O	-3.344000000000E-01	-3.317000000000E-01	-3.549000000000E-01
	O11	O	2.700000000000E-03	3.344000000000E-01	-3.549000000000E-01
	O12	O	3.317000000000E-01	-2.700000000000E-03	-3.549000000000E-01
	O13	O	2.700000000000E-03	-3.317000000000E-01	-3.549000000000E-01
	O14	O	3.317000000000E-01	3.344000000000E-01	-3.549000000000E-01
	O15	O	-3.344000000000E-01	-2.700000000000E-03	-3.549000000000E-01
	O16	O	3.344000000000E-01	3.317000000000E-01	3.549000000000E-01
	O17	O	-2.700000000000E-03	-3.344000000000E-01	3.549000000000E-01
	O18	O	-3.317000000000E-01	2.700000000000E-03	3.549000000000E-01
	O19	O	-1.123000000000E-01	1.123000000000E-01	3.967000000000E-01
	O20	O	-1.123000000000E-01	-2.246000000000E-01	3.967000000000E-01
	O21	O	2.246000000000E-01	1.123000000000E-01	3.967000000000E-01
	O22	O	-2.246000000000E-01	-1.123000000000E-01	-3.967000000000E-01
	O23	O	1.123000000000E-01	2.246000000000E-01	-3.967000000000E-01
	O24	O	1.123000000000E-01	-1.123000000000E-01	-3.967000000000E-01
	O25	O	2.767000000000E-01	-2.775557561563E-17	-5.000000000000E-01
	O26	O	1.936796253625E-17	2.767000000000E-01	-5.000000000000E-01
	O27	O	-2.767000000000E-01	-2.767000000000E-01	-5.000000000000E-01
	O28	O	-2.767000000000E-01	2.775557561563E-17	-5.000000000000E-01
	O29	O	-1.936796253625E-17	-2.767000000000E-01	-5.000000000000E-01
	O30	O	2.767000000000E-01	2.767000000000E-01	-5.000000000000E-01
	O31	O	2.374000000000E-01	-2.374000000000E-01	1.183000000000E-01
	O32	O	2.374000000000E-01	4.748000000000E-01	1.183000000000E-01
	O33	O	-4.748000000000E-01	-2.374000000000E-01	1.183000000000E-01
	O34	O	4.748000000000E-01	2.374000000000E-01	-1.183000000000E-01
	O35	O	-2.374000000000E-01	-4.748000000000E-01	-1.183000000000E-01
	O36	O	-2.374000000000E-01	2.374000000000E-01	-1.183000000000E-01
	O37	O	2.580000000000E-02	3.215000000000E-01	7.290000000000E-02
	O38	O	-3.215000000000E-01	-2.957000000000E-01	7.290000000000E-02
	O39	O	2.957000000000E-01	-2.580000000000E-02	7.290000000000E-02
	O40	O	-2.957000000000E-01	-3.215000000000E-01	-7.290000000000E-02
	O41	O	-2.580000000000E-02	2.957000000000E-01	-7.290000000000E-02
	O42	O	3.215000000000E-01	2.580000000000E-02	-7.290000000000E-02
	O43	O	-2.580000000000E-02	-3.215000000000E-01	-7.290000000000E-02
	O44	O	3.215000000000E-01	2.957000000000E-01	-7.290000000000E-02
	O45	O	-2.957000000000E-01	2.580000000000E-02	-7.290000000000E-02
	O46	O	2.957000000000E-01	3.215000000000E-01	7.290000000000E-02
	O47	O	2.580000000000E-02	-2.957000000000E-01	7.290000000000E-02
	O48	O	-3.215000000000E-01	-2.580000000000E-02	7.290000000000E-02
	O49	O	4.589000000000E-01	-4.589000000000E-01	9.800000000000E-02
	O50	O	4.589000000000E-01	-8.220000000000E-02	9.800000000000E-02
	O51	O	8.220000000000E-02	-4.589000000000E-01	9.800000000000E-02
	O52	O	-8.220000000000E-02	4.589000000000E-01	-9.800000000000E-02
	O53	O	-4.589000000000E-01	8.220000000000E-02	-9.800000000000E-02
	O54	O	-4.589000000000E-01	4.589000000000E-01	-9.800000000000E-02
	O55	O	5.980000000000E-02	4.033000000000E-01	2.125000000000E-01
	O56	O	-4.033000000000E-01	-3.435000000000E-01	2.125000000000E-01
	O57	O	3.435000000000E-01	-5.980000000000E-02	2.125000000000E-01
	O58	O	-3.435000000000E-01	-4.033000000000E-01	-2.125000000000E-01
	O59	O	-5.980000000000E-02	3.435000000000E-01	-2.125000000000E-01
	O60	O	4.033000000000E-01	5.980000000000E-02	-2.125000000000E-01
	O61	O	-5.980000000000E-02	-4.033000000000E-01	-2.125000000000E-01
	O62	O	4.033000000000E-01	3.435000000000E-01	-2.125000000000E-01
	O63	O	-3.435000000000E-01	5.980000000000E-02	-2.125000000000E-01
	O64	O	3.435000000000E-01	4.033000000000E-01	2.125000000000E-01
	O65	O	5.980000000000E-02	-3.435000000000E-01	2.125000000000E-01
	O66	O	-4.033000000000E-01	-5.980000000000E-02	2.125000000000E-01
	O67	O	2.173000000000E-01	-2.173000000000E-01	3.163000000000E-01
	O68	O	2.173000000000E-01	4.346000000000E-01	3.163000000000E-01
	O69	O	-4.346000000000E-01	-2.173000000000E-01	3.163000000000E-01
	O70	O	4.346000000000E-01	2.173000000000E-01	-3.163000000000E-01
	O71	O	-2.173000000000E-01	-4.346000000000E-01	-3.163000000000E-01
	O72	O	-2.173000000000E-01	2.173000000000E-01	-3.163000000000E-01
	O73	O	4.448500000000E-01	-4.448500000000E-01	3.241000000000E-01
	O74	O	4.448500000000E-01	-1.103000000000E-01	3.241000000000E-01
	O75	O	1.103000000000E-01	-4.448500000000E-01	3.241000000000E-01
	O76	O	-1.103000000000E-01	4.448500000000E-01	-3.241000000000E-01
	O77	O	-4.448500000000E-01	1.103000000000E-01	-3.241000000000E-01
	O78	O	-4.448500000000E-01	4.448500000000E-01	-3.241000000000E-01
	O79	O	-1.117000000000E-01	1.117000000000E-01	1.700000000000E-02
	O80	O	-1.117000000000E-01	-2.234000000000E-01	1.700000000000E-02
	O81	O	2.234000000000E-01	1.117000000000E-01	1.700000000000E-02
	O82	O	-2.234000000000E-01	-1.117000000000E-01	-1.700000000000E-02
	O83	O	1.117000000000E-01	2.234000000000E-01	-1.700000000000E-02
	O84	O	1.117000000000E-01	-1.117000000000E-01	-1.700000000000E-02
	Si85	Si	-2.000000000000E-04	2.382000000000E-01	4.127000000000E-01
	Si86	Si	-2.382000000000E-01	-2.384000000000E-01	4.127000000000E-01
	Si87	Si	2.384000000000E-01	2.000000000000E-04	4.127000000000E-01
	Si88	Si	-2.384000000000E-01	-2.382000000000E-01	-4.127000000000E-01
	Si89	Si	2.000000000000E-04	2.384000000000E-01	-4.127000000000E-01
	Si90	Si	2.382000000000E-01	-2.000000000000E-04	-4.127000000000E-01
	Si91	Si	2.000000000000E-04	-2.382000000000E-01	-4.127000000000E-01
	Si92	Si	2.382000000000E-01	2.384000000000E-01	-4.127000000000E-01
	Si93	Si	-2.384000000000E-01	-2.000000000000E-04	-4.127000000000E-01
	Si94	Si	2.384000000000E-01	2.382000000000E-01	4.127000000000E-01
	Si95	Si	-2.000000000000E-04	-2.384000000000E-01	4.127000000000E-01
	Si96	Si	-2.382000000000E-01	2.000000000000E-04	4.127000000000E-01
	Si97	Si	1.013000000000E-01	4.354000000000E-01	1.249000000000E-01
	Si98	Si	-4.354000000000E-01	-3.341000000000E-01	1.249000000000E-01
	Si99	Si	3.341000000000E-01	-1.013000000000E-01	1.249000000000E-01
	Si100	Si	-3.341000000000E-01	-4.354000000000E-01	-1.249000000000E-01
	Si101	Si	-1.013000000000E-01	3.341000000000E-01	-1.249000000000E-01
	Si102	Si	4.354000000000E-01	1.013000000000E-01	-1.249000000000E-01
	Si103	Si	-1.013000000000E-01	-4.354000000000E-01	-1.249000000000E-01
	Si104	Si	4.354000000000E-01	3.341000000000E-01	-1.249000000000E-01
	Si105	Si	-3.341000000000E-01	1.013000000000E-01	-1.249000000000E-01
	Si106	Si	3.341000000000E-01	4.354000000000E-01	1.249000000000E-01
	Si107	Si	1.013000000000E-01	-3.341000000000E-01	1.249000000000E-01
	Si108	Si	-4.354000000000E-01	-1.013000000000E-01	1.249000000000E-01
	Si109	Si	9.570000000000E-02	4.309000000000E-01	3.011000000000E-01
	Si110	Si	-4.309000000000E-01	-3.352000000000E-01	3.011000000000E-01
	Si111	Si	3.352000000000E-01	-9.570000000000E-02	3.011000000000E-01
	Si112	Si	-3.352000000000E-01	-4.309000000000E-01	-3.011000000000E-01
	Si113	Si	-9.570000000000E-02	3.352000000000E-01	-3.011000000000E-01
	Si114	Si	4.309000000000E-01	9.570000000000E-02	-3.011000000000E-01
	Si115	Si	-9.570000000000E-02	-4.309000000000E-01	-3.011000000000E-01
	Si116	Si	4.309000000000E-01	3.352000000000E-01	-3.011000000000E-01
	Si117	Si	-3.352000000000E-01	9.570000000000E-02	-3.011000000000E-01
	Si118	Si	3.352000000000E-01	4.309000000000E-01	3.011000000000E-01
	Si119	Si	9.570000000000E-02	-3.352000000000E-01	3.011000000000E-01
	Si120	Si	-4.309000000000E-01	-9.570000000000E-02	3.011000000000E-01
	Si121	Si	2.377000000000E-01	2.775557561563E-17	0.000000000000E+00
	Si122	Si	0.000000000000E+00	2.377000000000E-01	0.000000000000E+00
	Si123	Si	-2.377000000000E-01	-2.377000000000E-01	0.000000000000E+00
	Si124	Si	-2.377000000000E-01	-1.387778780781E-17	0.000000000000E+00
	Si125	Si	0.000000000000E+00	-2.377000000000E-01	0.000000000000E+00
	Si126	Si	2.377000000000E-01	2.377000000000E-01	0.000000000000E+00


data_ AWO
_chemical_name_common		'AWO'
_cell_length_a		8.78748294
_cell_length_b		8.78748294
_cell_length_c		19.24100000
_cell_angle_alpha		90.000000
_cell_angle_beta		90.000000
_cell_angle_gamma		62.374793
_space group_name_H-M_alt		'P 1'
_space_group_IT_number		1

loop_
	_atom_site_label
	_atom_site_type_symbol
	_atom_site_fract_x
	_atom_site_fract_y
	_atom_site_fract_z
	O1	O	1.398000000000E-01	-3.602000000000E-01	2.500000000000E-01
	O2	O	3.602000000000E-01	-1.398000000000E-01	-2.500000000000E-01
	O3	O	-1.398000000000E-01	3.602000000000E-01	-2.500000000000E-01
	O4	O	-3.602000000000E-01	1.398000000000E-01	2.500000000000E-01
	O5	O	-1.393000000000E-01	-1.393000000000E-01	3.149000000000E-01
	O6	O	-3.607000000000E-01	-3.607000000000E-01	-1.851000000000E-01
	O7	O	1.393000000000E-01	1.393000000000E-01	-3.149000000000E-01
	O8	O	3.607000000000E-01	3.607000000000E-01	1.851000000000E-01
	O9	O	-1.660000000000E-02	-4.714000000000E-01	3.368000000000E-01
	O10	O	-4.834000000000E-01	-2.860000000000E-02	-1.632000000000E-01
	O11	O	4.714000000000E-01	1.660000000000E-02	-3.368000000000E-01
	O12	O	2.860000000000E-02	4.834000000000E-01	1.632000000000E-01
	O13	O	1.660000000000E-02	4.714000000000E-01	-3.368000000000E-01
	O14	O	4.834000000000E-01	2.860000000000E-02	1.632000000000E-01
	O15	O	-4.714000000000E-01	-1.660000000000E-02	3.368000000000E-01
	O16	O	-2.860000000000E-02	-4.834000000000E-01	-1.632000000000E-01
	O17	O	1.495000000000E-01	-3.103000000000E-01	3.842000000000E-01
	O18	O	3.505000000000E-01	-1.897000000000E-01	-1.158000000000E-01
	O19	O	3.103000000000E-01	-1.495000000000E-01	-3.842000000000E-01
	O20	O	1.897000000000E-01	-3.505000000000E-01	1.158000000000E-01
	O21	O	-1.495000000000E-01	3.103000000000E-01	-3.842000000000E-01
	O22	O	-3.505000000000E-01	1.897000000000E-01	1.158000000000E-01
	O23	O	-3.103000000000E-01	1.495000000000E-01	3.842000000000E-01
	O24	O	-1.897000000000E-01	3.505000000000E-01	-1.158000000000E-01
	O25	O	3.105000000000E-01	-1.279000000000E-01	1.158000000000E-01
	O26	O	1.895000000000E-01	-3.721000000000E-01	-3.842000000000E-01
	O27	O	1.279000000000E-01	-3.105000000000E-01	-1.158000000000E-01
	O28	O	3.721000000000E-01	-1.895000000000E-01	3.842000000000E-01
	O29	O	-3.105000000000E-01	1.279000000000E-01	-1.158000000000E-01
	O30	O	-1.895000000000E-01	3.721000000000E-01	3.842000000000E-01
	O31	O	-1.279000000000E-01	3.105000000000E-01	1.158000000000E-01
	O32	O	-3.721000000000E-01	1.895000000000E-01	-3.842000000000E-01
	O33	O	1.957000000000E-01	-1.957000000000E-01	0.000000000000E+00
	O34	O	3.043000000000E-01	-3.043000000000E-01	-5.000000000000E-01
	O35	O	-1.957000000000E-01	1.957000000000E-01	0.000000000000E+00
	O36	O	-3.043000000000E-01	3.043000000000E-01	-5.000000000000E-01
	O37	O	-2.110000000000E-02	-2.110000000000E-02	9.930000000000E-02
	O38	O	-4.789000000000E-01	-4.789000000000E-01	-4.007000000000E-01
	O39	O	2.110000000000E-02	2.110000000000E-02	-9.930000000000E-02
	O40	O	4.789000000000E-01	4.789000000000E-01	4.007000000000E-01
	O41	O	3.711000000000E-01	-1.289000000000E-01	2.500000000000E-01
	O42	O	1.289000000000E-01	-3.711000000000E-01	-2.500000000000E-01
	O43	O	-3.711000000000E-01	1.289000000000E-01	-2.500000000000E-01
	O44	O	-1.289000000000E-01	3.711000000000E-01	2.500000000000E-01
	O45	O	-3.454000000000E-01	-3.454000000000E-01	3.108000000000E-01
	O46	O	-1.546000000000E-01	-1.546000000000E-01	-1.892000000000E-01
	O47	O	3.454000000000E-01	3.454000000000E-01	-3.108000000000E-01
	O48	O	1.546000000000E-01	1.546000000000E-01	1.892000000000E-01
	Si49	Si	3.270000000000E-02	-3.193000000000E-01	3.215000000000E-01
	Si50	Si	4.673000000000E-01	-1.807000000000E-01	-1.785000000000E-01
	Si51	Si	3.193000000000E-01	-3.270000000000E-02	-3.215000000000E-01
	Si52	Si	1.807000000000E-01	-4.673000000000E-01	1.785000000000E-01
	Si53	Si	-3.270000000000E-02	3.193000000000E-01	-3.215000000000E-01
	Si54	Si	-4.673000000000E-01	1.807000000000E-01	1.785000000000E-01
	Si55	Si	-3.193000000000E-01	3.270000000000E-02	3.215000000000E-01
	Si56	Si	-1.807000000000E-01	4.673000000000E-01	-1.785000000000E-01
	Si57	Si	1.679000000000E-01	-1.733000000000E-01	8.270000000000E-02
	Si58	Si	3.321000000000E-01	-3.267000000000E-01	-4.173000000000E-01
	Si59	Si	1.733000000000E-01	-1.679000000000E-01	-8.270000000000E-02
	Si60	Si	3.267000000000E-01	-3.321000000000E-01	4.173000000000E-01
	Si61	Si	-1.679000000000E-01	1.733000000000E-01	-8.270000000000E-02
	Si62	Si	-3.321000000000E-01	3.267000000000E-01	4.173000000000E-01
	Si63	Si	-1.733000000000E-01	1.679000000000E-01	8.270000000000E-02
	Si64	Si	-3.267000000000E-01	3.321000000000E-01	-4.173000000000E-01
	Si65	Si	4.806000000000E-01	-1.690000000000E-01	3.208000000000E-01
	Si66	Si	1.940000000000E-02	-3.310000000000E-01	-1.792000000000E-01
	Si67	Si	1.690000000000E-01	-4.806000000000E-01	-3.208000000000E-01
	Si68	Si	3.310000000000E-01	-1.940000000000E-02	1.792000000000E-01
	Si69	Si	-4.806000000000E-01	1.690000000000E-01	-3.208000000000E-01
	Si70	Si	-1.940000000000E-02	3.310000000000E-01	1.792000000000E-01
	Si71	Si	-1.690000000000E-01	4.806000000000E-01	3.208000000000E-01
	Si72	Si	-3.310000000000E-01	1.940000000000E-02	-1.792000000000E-01


data_ AWW
_chemical_name_common		'AWW'
_cell_length_a		13.63400000
_cell_length_b		13.63400000
_cell_length_c		7.62700000
_cell_angle_alpha		90.000000
_cell_angle_beta		90.000000
_cell_angle_gamma		90.000000
_space group_name_H-M_alt		'P 1'
_space_group_IT_number		1

loop_
	_atom_site_label
	_atom_site_type_symbol
	_atom_site_fract_x
	_atom_site_fract_y
	_atom_site_fract_z
	O1	O	-2.496000000000E-01	0.000000000000E+00	-1.301000000000E-01
	O2	O	2.496000000000E-01	0.000000000000E+00	-1.301000000000E-01
	O3	O	2.504000000000E-01	-5.000000000000E-01	1.301000000000E-01
	O4	O	-2.504000000000E-01	-5.000000000000E-01	1.301000000000E-01
	O5	O	5.000000000000E-01	-2.504000000000E-01	1.301000000000E-01
	O6	O	5.000000000000E-01	2.504000000000E-01	1.301000000000E-01
	O7	O	0.000000000000E+00	2.496000000000E-01	-1.301000000000E-01
	O8	O	0.000000000000E+00	-2.496000000000E-01	-1.301000000000E-01
	O9	O	-3.170000000000E-01	1.389000000000E-01	-3.370000000000E-01
	O10	O	3.170000000000E-01	-1.389000000000E-01	-3.370000000000E-01
	O11	O	1.830000000000E-01	3.611000000000E-01	3.370000000000E-01
	O12	O	-1.830000000000E-01	-3.611000000000E-01	3.370000000000E-01
	O13	O	3.611000000000E-01	-1.830000000000E-01	3.370000000000E-01
	O14	O	-3.611000000000E-01	1.830000000000E-01	3.370000000000E-01
	O15	O	1.389000000000E-01	3.170000000000E-01	-3.370000000000E-01
	O16	O	-1.389000000000E-01	-3.170000000000E-01	-3.370000000000E-01
	O17	O	-1.830000000000E-01	3.611000000000E-01	3.370000000000E-01
	O18	O	1.830000000000E-01	-3.611000000000E-01	3.370000000000E-01
	O19	O	3.170000000000E-01	1.389000000000E-01	-3.370000000000E-01
	O20	O	-3.170000000000E-01	-1.389000000000E-01	-3.370000000000E-01
	O21	O	1.389000000000E-01	-3.170000000000E-01	-3.370000000000E-01
	O22	O	-1.389000000000E-01	3.170000000000E-01	-3.370000000000E-01
	O23	O	3.611000000000E-01	1.830000000000E-01	3.370000000000E-01
	O24	O	-3.611000000000E-01	-1.830000000000E-01	3.370000000000E-01
	O25	O	-3.578000000000E-01	1.422000000000E-01	0.000000000000E+00
	O26	O	3.578000000000E-01	-1.422000000000E-01	0.000000000000E+00
	O27	O	1.422000000000E-01	3.578000000000E-01	0.000000000000E+00
	O28	O	-1.422000000000E-01	-3.578000000000E-01	0.000000000000E+00
	O29	O	-1.422000000000E-01	3.578000000000E-01	0.000000000000E+00
	O30	O	1.422000000000E-01	-3.578000000000E-01	0.000000000000E+00
	O31	O	3.578000000000E-01	1.422000000000E-01	0.000000000000E+00
	O32	O	-3.578000000000E-01	-1.422000000000E-01	0.000000000000E+00
	O33	O	-1.784000000000E-01	1.784000000000E-01	-1.079000000000E-01
	O34	O	1.784000000000E-01	-1.784000000000E-01	-1.079000000000E-01
	O35	O	3.216000000000E-01	3.216000000000E-01	1.079000000000E-01
	O36	O	-3.216000000000E-01	-3.216000000000E-01	1.079000000000E-01
	O37	O	3.216000000000E-01	-3.216000000000E-01	1.079000000000E-01
	O38	O	-3.216000000000E-01	3.216000000000E-01	1.079000000000E-01
	O39	O	1.784000000000E-01	1.784000000000E-01	-1.079000000000E-01
	O40	O	-1.784000000000E-01	-1.784000000000E-01	-1.079000000000E-01
	O41	O	3.710000000000E-01	0.000000000000E+00	4.442000000000E-01
	O42	O	-3.710000000000E-01	0.000000000000E+00	4.442000000000E-01
	O43	O	-1.290000000000E-01	-5.000000000000E-01	-4.442000000000E-01
	O44	O	1.290000000000E-01	-5.000000000000E-01	-4.442000000000E-01
	O45	O	5.000000000000E-01	1.290000000000E-01	-4.442000000000E-01
	O46	O	5.000000000000E-01	-1.290000000000E-01	-4.442000000000E-01
	O47	O	0.000000000000E+00	-3.710000000000E-01	4.442000000000E-01
	O48	O	0.000000000000E+00	3.710000000000E-01	4.442000000000E-01
	Si49	Si	-2.758000000000E-01	1.148000000000E-01	-1.440000000000E-01
	Si50	Si	2.758000000000E-01	-1.148000000000E-01	-1.440000000000E-01
	Si51	Si	2.242000000000E-01	3.852000000000E-01	1.440000000000E-01
	Si52	Si	-2.242000000000E-01	-3.852000000000E-01	1.440000000000E-01
	Si53	Si	3.852000000000E-01	-2.242000000000E-01	1.440000000000E-01
	Si54	Si	-3.852000000000E-01	2.242000000000E-01	1.440000000000E-01
	Si55	Si	1.148000000000E-01	2.758000000000E-01	-1.440000000000E-01
	Si56	Si	-1.148000000000E-01	-2.758000000000E-01	-1.440000000000E-01
	Si57	Si	-2.242000000000E-01	3.852000000000E-01	1.440000000000E-01
	Si58	Si	2.242000000000E-01	-3.852000000000E-01	1.440000000000E-01
	Si59	Si	2.758000000000E-01	1.148000000000E-01	-1.440000000000E-01
	Si60	Si	-2.758000000000E-01	-1.148000000000E-01	-1.440000000000E-01
	Si61	Si	1.148000000000E-01	-2.758000000000E-01	-1.440000000000E-01
	Si62	Si	-1.148000000000E-01	2.758000000000E-01	-1.440000000000E-01
	Si63	Si	3.852000000000E-01	2.242000000000E-01	1.440000000000E-01
	Si64	Si	-3.852000000000E-01	-2.242000000000E-01	1.440000000000E-01
	Si65	Si	3.873000000000E-01	1.127000000000E-01	-5.000000000000E-01
	Si66	Si	-3.873000000000E-01	-1.127000000000E-01	-5.000000000000E-01
	Si67	Si	-1.127000000000E-01	3.873000000000E-01	-5.000000000000E-01
	Si68	Si	1.127000000000E-01	-3.873000000000E-01	-5.000000000000E-01
	Si69	Si	1.127000000000E-01	3.873000000000E-01	-5.000000000000E-01
	Si70	Si	-1.127000000000E-01	-3.873000000000E-01	-5.000000000000E-01
	Si71	Si	-3.873000000000E-01	1.127000000000E-01	-5.000000000000E-01
	Si72	Si	3.873000000000E-01	-1.127000000000E-01	-5.000000000000E-01


data_ BEC
_chemical_name_common		'BEC'
_cell_length_a		12.77000000
_cell_length_b		12.77000000
_cell_length_c		12.97700000
_cell_angle_alpha		90.000000
_cell_angle_beta		90.000000
_cell_angle_gamma		90.000000
_space group_name_H-M_alt		'P 1'
_space_group_IT_number		1

loop_
	_atom_site_label
	_atom_site_type_symbol
	_atom_site_fract_x
	_atom_site_fract_y
	_atom_site_fract_z
	O1	O	0.000000000000E+00	-3.801000000000E-01	3.564000000000E-01
	O2	O	0.000000000000E+00	3.801000000000E-01	3.564000000000E-01
	O3	O	0.000000000000E+00	3.801000000000E-01	-3.564000000000E-01
	O4	O	0.000000000000E+00	-3.801000000000E-01	-3.564000000000E-01
	O5	O	3.801000000000E-01	0.000000000000E+00	1.436000000000E-01
	O6	O	-3.801000000000E-01	0.000000000000E+00	1.436000000000E-01
	O7	O	-3.801000000000E-01	0.000000000000E+00	-1.436000000000E-01
	O8	O	3.801000000000E-01	0.000000000000E+00	-1.436000000000E-01
	O9	O	-1.407000000000E-01	-3.433000000000E-01	-5.000000000000E-01
	O10	O	1.407000000000E-01	3.433000000000E-01	-5.000000000000E-01
	O11	O	-1.407000000000E-01	3.433000000000E-01	-5.000000000000E-01
	O12	O	1.407000000000E-01	-3.433000000000E-01	-5.000000000000E-01
	O13	O	3.433000000000E-01	1.407000000000E-01	0.000000000000E+00
	O14	O	-3.433000000000E-01	-1.407000000000E-01	0.000000000000E+00
	O15	O	-3.433000000000E-01	1.407000000000E-01	0.000000000000E+00
	O16	O	3.433000000000E-01	-1.407000000000E-01	0.000000000000E+00
	O17	O	-1.661000000000E-01	-5.000000000000E-01	3.710000000000E-01
	O18	O	1.661000000000E-01	-5.000000000000E-01	3.710000000000E-01
	O19	O	-1.661000000000E-01	-5.000000000000E-01	-3.710000000000E-01
	O20	O	1.661000000000E-01	-5.000000000000E-01	-3.710000000000E-01
	O21	O	-5.000000000000E-01	1.661000000000E-01	1.290000000000E-01
	O22	O	-5.000000000000E-01	-1.661000000000E-01	1.290000000000E-01
	O23	O	-5.000000000000E-01	1.661000000000E-01	-1.290000000000E-01
	O24	O	-5.000000000000E-01	-1.661000000000E-01	-1.290000000000E-01
	O25	O	-1.837000000000E-01	-3.058000000000E-01	-3.046000000000E-01
	O26	O	1.837000000000E-01	3.058000000000E-01	-3.046000000000E-01
	O27	O	-1.837000000000E-01	3.058000000000E-01	3.046000000000E-01
	O28	O	1.837000000000E-01	-3.058000000000E-01	3.046000000000E-01
	O29	O	3.058000000000E-01	1.837000000000E-01	-1.954000000000E-01
	O30	O	-3.058000000000E-01	-1.837000000000E-01	-1.954000000000E-01
	O31	O	-3.058000000000E-01	1.837000000000E-01	1.954000000000E-01
	O32	O	3.058000000000E-01	-1.837000000000E-01	1.954000000000E-01
	O33	O	1.837000000000E-01	3.058000000000E-01	3.046000000000E-01
	O34	O	-1.837000000000E-01	-3.058000000000E-01	3.046000000000E-01
	O35	O	1.837000000000E-01	-3.058000000000E-01	-3.046000000000E-01
	O36	O	-1.837000000000E-01	3.058000000000E-01	-3.046000000000E-01
	O37	O	-3.058000000000E-01	-1.837000000000E-01	1.954000000000E-01
	O38	O	3.058000000000E-01	1.837000000000E-01	1.954000000000E-01
	O39	O	3.058000000000E-01	-1.837000000000E-01	-1.954000000000E-01
	O40	O	-3.058000000000E-01	1.837000000000E-01	-1.954000000000E-01
	O41	O	0.000000000000E+00	-1.196000000000E-01	0.000000000000E+00
	O42	O	0.000000000000E+00	1.196000000000E-01	0.000000000000E+00
	O43	O	1.196000000000E-01	0.000000000000E+00	-5.000000000000E-01
	O44	O	-1.196000000000E-01	0.000000000000E+00	-5.000000000000E-01
	O45	O	0.000000000000E+00	0.000000000000E+00	1.645000000000E-01
	O46	O	0.000000000000E+00	0.000000000000E+00	-1.645000000000E-01
	O47	O	0.000000000000E+00	0.000000000000E+00	3.355000000000E-01
	O48	O	0.000000000000E+00	0.000000000000E+00	-3.355000000000E-01
	O49	O	-1.027000000000E-01	1.797000000000E-01	1.644000000000E-01
	O50	O	1.027000000000E-01	-1.797000000000E-01	1.644000000000E-01
	O51	O	-1.027000000000E-01	-1.797000000000E-01	-1.644000000000E-01
	O52	O	1.027000000000E-01	1.797000000000E-01	-1.644000000000E-01
	O53	O	-1.797000000000E-01	1.027000000000E-01	3.356000000000E-01
	O54	O	1.797000000000E-01	-1.027000000000E-01	3.356000000000E-01
	O55	O	1.797000000000E-01	1.027000000000E-01	-3.356000000000E-01
	O56	O	-1.797000000000E-01	-1.027000000000E-01	-3.356000000000E-01
	O57	O	1.027000000000E-01	-1.797000000000E-01	-1.644000000000E-01
	O58	O	-1.027000000000E-01	1.797000000000E-01	-1.644000000000E-01
	O59	O	1.027000000000E-01	1.797000000000E-01	1.644000000000E-01
	O60	O	-1.027000000000E-01	-1.797000000000E-01	1.644000000000E-01
	O61	O	1.797000000000E-01	-1.027000000000E-01	-3.356000000000E-01
	O62	O	-1.797000000000E-01	1.027000000000E-01	-3.356000000000E-01
	O63	O	-1.797000000000E-01	-1.027000000000E-01	3.356000000000E-01
	O64	O	1.797000000000E-01	1.027000000000E-01	3.356000000000E-01
	Si65	Si	-1.230000000000E-01	-3.820000000000E-01	-3.832000000000E-01
	Si66	Si	1.230000000000E-01	3.820000000000E-01	-3.832000000000E-01
	Si67	Si	-1.230000000000E-01	3.820000000000E-01	3.832000000000E-01
	Si68	Si	1.230000000000E-01	-3.820000000000E-01	3.832000000000E-01
	Si69	Si	3.820000000000E-01	1.230000000000E-01	-1.168000000000E-01
	Si70	Si	-3.820000000000E-01	-1.230000000000E-01	-1.168000000000E-01
	Si71	Si	-3.820000000000E-01	1.230000000000E-01	1.168000000000E-01
	Si72	Si	3.820000000000E-01	-1.230000000000E-01	1.168000000000E-01
	Si73	Si	1.230000000000E-01	3.820000000000E-01	3.832000000000E-01
	Si74	Si	-1.230000000000E-01	-3.820000000000E-01	3.832000000000E-01
	Si75	Si	1.230000000000E-01	-3.820000000000E-01	-3.832000000000E-01
	Si76	Si	-1.230000000000E-01	3.820000000000E-01	-3.832000000000E-01
	Si77	Si	-3.820000000000E-01	-1.230000000000E-01	1.168000000000E-01
	Si78	Si	3.820000000000E-01	1.230000000000E-01	1.168000000000E-01
	Si79	Si	3.820000000000E-01	-1.230000000000E-01	-1.168000000000E-01
	Si80	Si	-3.820000000000E-01	1.230000000000E-01	-1.168000000000E-01
	Si81	Si	-1.930000000000E-01	-1.930000000000E-01	2.500000000000E-01
	Si82	Si	1.930000000000E-01	1.930000000000E-01	2.500000000000E-01
	Si83	Si	-1.930000000000E-01	1.930000000000E-01	-2.500000000000E-01
	Si84	Si	1.930000000000E-01	-1.930000000000E-01	-2.500000000000E-01
	Si85	Si	1.930000000000E-01	1.930000000000E-01	-2.500000000000E-01
	Si86	Si	-1.930000000000E-01	-1.930000000000E-01	-2.500000000000E-01
	Si87	Si	1.930000000000E-01	-1.930000000000E-01	2.500000000000E-01
	Si88	Si	-1.930000000000E-01	1.930000000000E-01	2.500000000000E-01
	Si89	Si	0.000000000000E+00	1.192000000000E-01	1.238000000000E-01
	Si90	Si	0.000000000000E+00	-1.192000000000E-01	1.238000000000E-01
	Si91	Si	0.000000000000E+00	-1.192000000000E-01	-1.238000000000E-01
	Si92	Si	0.000000000000E+00	1.192000000000E-01	-1.238000000000E-01
	Si93	Si	-1.192000000000E-01	0.000000000000E+00	3.762000000000E-01
	Si94	Si	1.192000000000E-01	0.000000000000E+00	3.762000000000E-01
	Si95	Si	1.192000000000E-01	0.000000000000E+00	-3.762000000000E-01
	Si96	Si	-1.192000000000E-01	0.000000000000E+00	-3.762000000000E-01


data_ BOF
_chemical_name_common		'BOF'
_cell_length_a		7.50300000
_cell_length_b		12.77300000
_cell_length_c		13.70600000
_cell_angle_alpha		90.000000
_cell_angle_beta		90.000000
_cell_angle_gamma		90.000000
_space group_name_H-M_alt		'P 1'
_space_group_IT_number		1

loop_
	_atom_site_label
	_atom_site_type_symbol
	_atom_site_fract_x
	_atom_site_fract_y
	_atom_site_fract_z
	O1	O	-4.753000000000E-01	-3.782000000000E-01	-4.464000000000E-01
	O2	O	-2.470000000000E-02	3.782000000000E-01	5.360000000000E-02
	O3	O	2.470000000000E-02	-1.218000000000E-01	-5.360000000000E-02
	O4	O	4.753000000000E-01	1.218000000000E-01	4.464000000000E-01
	O5	O	4.753000000000E-01	3.782000000000E-01	4.464000000000E-01
	O6	O	2.470000000000E-02	-3.782000000000E-01	-5.360000000000E-02
	O7	O	-2.470000000000E-02	1.218000000000E-01	5.360000000000E-02
	O8	O	-4.753000000000E-01	-1.218000000000E-01	-4.464000000000E-01
	O9	O	7.100000000000E-02	-4.413000000000E-01	-2.344000000000E-01
	O10	O	4.290000000000E-01	4.413000000000E-01	2.656000000000E-01
	O11	O	-4.290000000000E-01	-5.870000000000E-02	-2.656000000000E-01
	O12	O	-7.100000000000E-02	5.870000000000E-02	2.344000000000E-01
	O13	O	-7.100000000000E-02	4.413000000000E-01	2.344000000000E-01
	O14	O	-4.290000000000E-01	-4.413000000000E-01	-2.656000000000E-01
	O15	O	4.290000000000E-01	5.870000000000E-02	2.656000000000E-01
	O16	O	7.100000000000E-02	-5.870000000000E-02	-2.344000000000E-01
	O17	O	-1.543000000000E-01	-3.803000000000E-01	-3.704000000000E-01
	O18	O	-3.457000000000E-01	3.803000000000E-01	1.296000000000E-01
	O19	O	3.457000000000E-01	-1.197000000000E-01	-1.296000000000E-01
	O20	O	1.543000000000E-01	1.197000000000E-01	3.704000000000E-01
	O21	O	1.543000000000E-01	3.803000000000E-01	3.704000000000E-01
	O22	O	3.457000000000E-01	-3.803000000000E-01	-1.296000000000E-01
	O23	O	-3.457000000000E-01	1.197000000000E-01	1.296000000000E-01
	O24	O	-1.543000000000E-01	-1.197000000000E-01	-3.704000000000E-01
	O25	O	1.836000000000E-01	-4.090000000000E-01	-4.136000000000E-01
	O26	O	3.164000000000E-01	4.090000000000E-01	8.640000000000E-02
	O27	O	-3.164000000000E-01	-9.100000000000E-02	-8.640000000000E-02
	O28	O	-1.836000000000E-01	9.100000000000E-02	4.136000000000E-01
	O29	O	-1.836000000000E-01	4.090000000000E-01	4.136000000000E-01
	O30	O	-3.164000000000E-01	-4.090000000000E-01	-8.640000000000E-02
	O31	O	3.164000000000E-01	9.100000000000E-02	8.640000000000E-02
	O32	O	1.836000000000E-01	-9.100000000000E-02	-4.136000000000E-01
	O33	O	3.160000000000E-01	-4.424000000000E-01	4.116000000000E-01
	O34	O	1.840000000000E-01	4.424000000000E-01	-8.840000000000E-02
	O35	O	-1.840000000000E-01	-5.760000000000E-02	8.840000000000E-02
	O36	O	-3.160000000000E-01	5.760000000000E-02	-4.116000000000E-01
	O37	O	-3.160000000000E-01	4.424000000000E-01	-4.116000000000E-01
	O38	O	-1.840000000000E-01	-4.424000000000E-01	8.840000000000E-02
	O39	O	1.840000000000E-01	5.760000000000E-02	-8.840000000000E-02
	O40	O	3.160000000000E-01	-5.760000000000E-02	4.116000000000E-01
	O41	O	8.800000000000E-02	-2.500000000000E-01	-3.038000000000E-01
	O42	O	4.120000000000E-01	2.500000000000E-01	1.962000000000E-01
	O43	O	-4.120000000000E-01	-2.500000000000E-01	-1.962000000000E-01
	O44	O	-8.800000000000E-02	2.500000000000E-01	3.038000000000E-01
	O45	O	2.875000000000E-01	-2.500000000000E-01	4.786000000000E-01
	O46	O	2.125000000000E-01	2.500000000000E-01	-2.140000000000E-02
	O47	O	-2.125000000000E-01	-2.500000000000E-01	2.140000000000E-02
	O48	O	-2.875000000000E-01	2.500000000000E-01	-4.786000000000E-01
	Si49	Si	4.680000000000E-02	-3.704000000000E-01	-3.306000000000E-01
	Si50	Si	4.532000000000E-01	3.704000000000E-01	1.694000000000E-01
	Si51	Si	-4.532000000000E-01	-1.296000000000E-01	-1.694000000000E-01
	Si52	Si	-4.680000000000E-02	1.296000000000E-01	3.306000000000E-01
	Si53	Si	-4.680000000000E-02	3.704000000000E-01	3.306000000000E-01
	Si54	Si	-4.532000000000E-01	-3.704000000000E-01	-1.694000000000E-01
	Si55	Si	4.532000000000E-01	1.296000000000E-01	1.694000000000E-01
	Si56	Si	4.680000000000E-02	-1.296000000000E-01	-3.306000000000E-01
	Si57	Si	-3.436000000000E-01	-4.395000000000E-01	-3.734000000000E-01
	Si58	Si	-1.564000000000E-01	4.395000000000E-01	1.266000000000E-01
	Si59	Si	1.564000000000E-01	-6.050000000000E-02	-1.266000000000E-01
	Si60	Si	3.436000000000E-01	6.050000000000E-02	3.734000000000E-01
	Si61	Si	3.436000000000E-01	4.395000000000E-01	3.734000000000E-01
	Si62	Si	1.564000000000E-01	-4.395000000000E-01	-1.266000000000E-01
	Si63	Si	-1.564000000000E-01	6.050000000000E-02	1.266000000000E-01
	Si64	Si	-3.436000000000E-01	-6.050000000000E-02	-3.734000000000E-01
	Si65	Si	3.279000000000E-01	-3.699000000000E-01	-4.925000000000E-01
	Si66	Si	1.721000000000E-01	3.699000000000E-01	7.500000000000E-03
	Si67	Si	-1.721000000000E-01	-1.301000000000E-01	-7.500000000000E-03
	Si68	Si	-3.279000000000E-01	1.301000000000E-01	4.925000000000E-01
	Si69	Si	-3.279000000000E-01	3.699000000000E-01	4.925000000000E-01
	Si70	Si	-1.721000000000E-01	-3.699000000000E-01	-7.500000000000E-03
	Si71	Si	1.721000000000E-01	1.301000000000E-01	7.500000000000E-03
	Si72	Si	3.279000000000E-01	-1.301000000000E-01	-4.925000000000E-01


data_ BOG
_chemical_name_common		'BOG'
_cell_length_a		16.71137455
_cell_length_b		16.71137455
_cell_length_c		16.71137455
_cell_angle_alpha		106.430036
_cell_angle_beta		90.258883
_cell_angle_gamma		135.449904
_space group_name_H-M_alt		'P 1'
_space_group_IT_number		1

loop_
	_atom_site_label
	_atom_site_type_symbol
	_atom_site_fract_x
	_atom_site_fract_y
	_atom_site_fract_z
	O1	O	-2.921000000000E-01	-2.368000000000E-01	3.451000000000E-01
	O2	O	-8.190000000000E-02	3.628000000000E-01	1.549000000000E-01
	O3	O	2.921000000000E-01	-3.628000000000E-01	5.530000000000E-02
	O4	O	8.190000000000E-02	2.368000000000E-01	4.447000000000E-01
	O5	O	2.921000000000E-01	2.368000000000E-01	-3.451000000000E-01
	O6	O	8.190000000000E-02	-3.628000000000E-01	-1.549000000000E-01
	O7	O	-2.921000000000E-01	3.628000000000E-01	-5.530000000000E-02
	O8	O	-8.190000000000E-02	-2.368000000000E-01	-4.447000000000E-01
	O9	O	-1.059000000000E-01	-1.612000000000E-01	2.971000000000E-01
	O10	O	4.170000000000E-02	-4.030000000000E-01	2.029000000000E-01
	O11	O	1.059000000000E-01	4.030000000000E-01	-5.530000000000E-02
	O12	O	-4.170000000000E-02	1.612000000000E-01	-4.447000000000E-01
	O13	O	1.059000000000E-01	1.612000000000E-01	-2.971000000000E-01
	O14	O	-4.170000000000E-02	4.030000000000E-01	-2.029000000000E-01
	O15	O	-1.059000000000E-01	-4.030000000000E-01	5.530000000000E-02
	O16	O	4.170000000000E-02	-1.612000000000E-01	4.447000000000E-01
	O17	O	-1.178000000000E-01	-1.645000000000E-01	4.533000000000E-01
	O18	O	-1.178000000000E-01	4.289000000000E-01	4.670000000000E-02
	O19	O	1.178000000000E-01	-4.289000000000E-01	-4.670000000000E-02
	O20	O	1.178000000000E-01	1.645000000000E-01	-4.533000000000E-01
	O21	O	-8.290000000000E-02	1.066782342984E-17	4.171000000000E-01
	O22	O	8.290000000000E-02	-5.000000000000E-01	8.290000000000E-02
	O23	O	8.290000000000E-02	-1.066782342984E-17	-4.171000000000E-01
	O24	O	-8.290000000000E-02	-5.000000000000E-01	-8.290000000000E-02
	O25	O	5.930000000000E-02	1.900000000000E-02	2.479000000000E-01
	O26	O	2.711000000000E-01	-1.886000000000E-01	2.521000000000E-01
	O27	O	-5.930000000000E-02	1.886000000000E-01	-4.030000000000E-02
	O28	O	-2.711000000000E-01	-1.900000000000E-02	-4.597000000000E-01
	O29	O	-5.930000000000E-02	-1.900000000000E-02	-2.479000000000E-01
	O30	O	-2.711000000000E-01	1.886000000000E-01	-2.521000000000E-01
	O31	O	5.930000000000E-02	-1.886000000000E-01	4.030000000000E-02
	O32	O	2.711000000000E-01	1.900000000000E-02	4.597000000000E-01
	O33	O	-3.290000000000E-02	-2.025000000000E-01	1.696000000000E-01
	O34	O	1.279000000000E-01	-2.025000000000E-01	3.304000000000E-01
	O35	O	3.290000000000E-02	2.025000000000E-01	-1.696000000000E-01
	O36	O	-1.279000000000E-01	2.025000000000E-01	-3.304000000000E-01
	O37	O	1.107000000000E-01	-5.760000000000E-02	3.317000000000E-01
	O38	O	1.107000000000E-01	-2.210000000000E-01	1.683000000000E-01
	O39	O	-1.107000000000E-01	2.210000000000E-01	-1.683000000000E-01
	O40	O	-1.107000000000E-01	5.760000000000E-02	-3.317000000000E-01
	O41	O	4.793000000000E-01	-3.822000000000E-01	2.795000000000E-01
	O42	O	-1.617000000000E-01	1.998000000000E-01	2.205000000000E-01
	O43	O	-4.793000000000E-01	-1.998000000000E-01	1.385000000000E-01
	O44	O	1.617000000000E-01	3.822000000000E-01	3.615000000000E-01
	O45	O	-4.793000000000E-01	3.822000000000E-01	-2.795000000000E-01
	O46	O	1.617000000000E-01	-1.998000000000E-01	-2.205000000000E-01
	O47	O	4.793000000000E-01	1.998000000000E-01	-1.385000000000E-01
	O48	O	-1.617000000000E-01	-3.822000000000E-01	-3.615000000000E-01
	O49	O	3.629000000000E-01	-4.238000000000E-01	1.391000000000E-01
	O50	O	-6.290000000000E-02	2.238000000000E-01	3.609000000000E-01
	O51	O	-3.629000000000E-01	-2.238000000000E-01	2.133000000000E-01
	O52	O	6.290000000000E-02	4.238000000000E-01	2.867000000000E-01
	O53	O	-3.629000000000E-01	4.238000000000E-01	-1.391000000000E-01
	O54	O	6.290000000000E-02	-2.238000000000E-01	-3.609000000000E-01
	O55	O	3.629000000000E-01	2.238000000000E-01	-2.133000000000E-01
	O56	O	-6.290000000000E-02	-4.238000000000E-01	-2.867000000000E-01
	O57	O	3.019000000000E-01	3.894000000000E-01	1.583000000000E-01
	O58	O	-2.689000000000E-01	1.436000000000E-01	3.417000000000E-01
	O59	O	-3.019000000000E-01	-1.436000000000E-01	8.750000000000E-02
	O60	O	2.689000000000E-01	-3.894000000000E-01	4.125000000000E-01
	O61	O	-3.019000000000E-01	-3.894000000000E-01	-1.583000000000E-01
	O62	O	2.689000000000E-01	-1.436000000000E-01	-3.417000000000E-01
	O63	O	3.019000000000E-01	1.436000000000E-01	-8.750000000000E-02
	O64	O	-2.689000000000E-01	3.894000000000E-01	-4.125000000000E-01
	O65	O	2.576000000000E-01	5.000000000000E-01	2.576000000000E-01
	O66	O	-2.576000000000E-01	1.066782342984E-17	2.424000000000E-01
	O67	O	-2.576000000000E-01	-5.000000000000E-01	-2.576000000000E-01
	O68	O	2.576000000000E-01	-1.032777019963E-16	-2.424000000000E-01
	O69	O	1.457000000000E-01	1.748000000000E-01	1.731000000000E-01
	O70	O	-4.983000000000E-01	-2.740000000000E-02	3.269000000000E-01
	O71	O	-1.457000000000E-01	2.740000000000E-02	2.910000000000E-02
	O72	O	4.983000000000E-01	-1.748000000000E-01	4.709000000000E-01
	O73	O	-1.457000000000E-01	-1.748000000000E-01	-1.731000000000E-01
	O74	O	4.983000000000E-01	2.740000000000E-02	-3.269000000000E-01
	O75	O	1.457000000000E-01	-2.740000000000E-02	-2.910000000000E-02
	O76	O	-4.983000000000E-01	1.748000000000E-01	-4.709000000000E-01
	O77	O	8.440000000000E-02	2.026000000000E-01	4.680000000000E-02
	O78	O	-3.442000000000E-01	3.760000000000E-02	4.532000000000E-01
	O79	O	-8.440000000000E-02	-3.760000000000E-02	1.182000000000E-01
	O80	O	3.442000000000E-01	-2.026000000000E-01	3.818000000000E-01
	O81	O	-8.440000000000E-02	-2.026000000000E-01	-4.680000000000E-02
	O82	O	3.442000000000E-01	-3.760000000000E-02	-4.532000000000E-01
	O83	O	8.440000000000E-02	3.760000000000E-02	-1.182000000000E-01
	O84	O	-3.442000000000E-01	2.026000000000E-01	-3.818000000000E-01
	O85	O	2.350000000000E-01	1.935000000000E-01	4.150000000000E-02
	O86	O	-3.480000000000E-01	1.935000000000E-01	4.585000000000E-01
	O87	O	-2.350000000000E-01	-1.935000000000E-01	-4.150000000000E-02
	O88	O	3.480000000000E-01	-1.935000000000E-01	-4.585000000000E-01
	O89	O	-3.687000000000E-01	-1.409000000000E-01	3.694000000000E-01
	O90	O	-1.030000000000E-02	2.619000000000E-01	1.306000000000E-01
	O91	O	3.687000000000E-01	-2.619000000000E-01	2.278000000000E-01
	O92	O	1.030000000000E-02	1.409000000000E-01	2.722000000000E-01
	O93	O	3.687000000000E-01	1.409000000000E-01	-3.694000000000E-01
	O94	O	1.030000000000E-02	-2.619000000000E-01	-1.306000000000E-01
	O95	O	-3.687000000000E-01	2.619000000000E-01	-2.278000000000E-01
	O96	O	-1.030000000000E-02	-1.409000000000E-01	-2.722000000000E-01
	Si97	Si	-1.496000000000E-01	-1.408000000000E-01	3.782000000000E-01
	Si98	Si	-1.900000000000E-02	4.722000000000E-01	1.218000000000E-01
	Si99	Si	1.496000000000E-01	-4.722000000000E-01	8.800000000000E-03
	Si100	Si	1.900000000000E-02	1.408000000000E-01	4.912000000000E-01
	Si101	Si	1.496000000000E-01	1.408000000000E-01	-3.782000000000E-01
	Si102	Si	1.900000000000E-02	-4.722000000000E-01	-1.218000000000E-01
	Si103	Si	-1.496000000000E-01	4.722000000000E-01	-8.800000000000E-03
	Si104	Si	-1.900000000000E-02	-1.408000000000E-01	-4.912000000000E-01
	Si105	Si	7.800000000000E-03	-1.004000000000E-01	2.616000000000E-01
	Si106	Si	1.380000000000E-01	-2.538000000000E-01	2.384000000000E-01
	Si107	Si	-7.800000000000E-03	2.538000000000E-01	-1.082000000000E-01
	Si108	Si	-1.380000000000E-01	1.004000000000E-01	-3.918000000000E-01
	Si109	Si	-7.800000000000E-03	1.004000000000E-01	-2.616000000000E-01
	Si110	Si	-1.380000000000E-01	2.538000000000E-01	-2.384000000000E-01
	Si111	Si	7.800000000000E-03	-2.538000000000E-01	1.082000000000E-01
	Si112	Si	1.380000000000E-01	-1.004000000000E-01	3.918000000000E-01
	Si113	Si	3.500000000000E-01	-4.796000000000E-01	2.088000000000E-01
	Si114	Si	-1.884000000000E-01	1.412000000000E-01	2.912000000000E-01
	Si115	Si	-3.500000000000E-01	-1.412000000000E-01	1.704000000000E-01
	Si116	Si	1.884000000000E-01	4.796000000000E-01	3.296000000000E-01
	Si117	Si	-3.500000000000E-01	4.796000000000E-01	-2.088000000000E-01
	Si118	Si	1.884000000000E-01	-1.412000000000E-01	-2.912000000000E-01
	Si119	Si	3.500000000000E-01	1.412000000000E-01	-1.704000000000E-01
	Si120	Si	-1.884000000000E-01	-4.796000000000E-01	-3.296000000000E-01
	Si121	Si	1.917000000000E-01	2.400000000000E-01	1.049000000000E-01
	Si122	Si	-3.649000000000E-01	8.680000000000E-02	3.951000000000E-01
	Si123	Si	-1.917000000000E-01	-8.680000000000E-02	4.830000000000E-02
	Si124	Si	3.649000000000E-01	-2.400000000000E-01	4.517000000000E-01
	Si125	Si	-1.917000000000E-01	-2.400000000000E-01	-1.049000000000E-01
	Si126	Si	3.649000000000E-01	-8.680000000000E-02	-3.951000000000E-01
	Si127	Si	1.917000000000E-01	8.680000000000E-02	-4.830000000000E-02
	Si128	Si	-3.649000000000E-01	2.400000000000E-01	-4.517000000000E-01
	Si129	Si	-3.861000000000E-01	-2.460000000000E-01	3.019000000000E-01
	Si130	Si	-4.790000000000E-02	3.120000000000E-01	1.981000000000E-01
	Si131	Si	3.861000000000E-01	-3.120000000000E-01	1.401000000000E-01
	Si132	Si	4.790000000000E-02	2.460000000000E-01	3.599000000000E-01
	Si133	Si	3.861000000000E-01	2.460000000000E-01	-3.019000000000E-01
	Si134	Si	4.790000000000E-02	-3.120000000000E-01	-1.981000000000E-01
	Si135	Si	-3.861000000000E-01	3.120000000000E-01	-1.401000000000E-01
	Si136	Si	-4.790000000000E-02	-2.460000000000E-01	-3.599000000000E-01
	Si137	Si	3.270000000000E-02	7.430000000000E-02	2.028000000000E-01
	Si138	Si	3.715000000000E-01	-1.701000000000E-01	2.972000000000E-01
	Si139	Si	-3.270000000000E-02	1.701000000000E-01	4.160000000000E-02
	Si140	Si	-3.715000000000E-01	-7.430000000000E-02	4.584000000000E-01
	Si141	Si	-3.270000000000E-02	-7.430000000000E-02	-2.028000000000E-01
	Si142	Si	-3.715000000000E-01	1.701000000000E-01	-2.972000000000E-01
	Si143	Si	3.270000000000E-02	-1.701000000000E-01	-4.160000000000E-02
	Si144	Si	3.715000000000E-01	7.430000000000E-02	-4.584000000000E-01


data_ BOZ
_chemical_name_common		'BOZ'
_cell_length_a		19.20458336
_cell_length_b		19.20458336
_cell_length_c		14.07700000
_cell_angle_alpha		90.000000
_cell_angle_beta		90.000000
_cell_angle_gamma		43.230301
_space group_name_H-M_alt		'P 1'
_space_group_IT_number		1

loop_
	_atom_site_label
	_atom_site_type_symbol
	_atom_site_fract_x
	_atom_site_fract_y
	_atom_site_fract_z
	O1	O	-2.802000000000E-01	-2.802000000000E-01	1.569000000000E-01
	O2	O	2.802000000000E-01	2.802000000000E-01	-3.431000000000E-01
	O3	O	2.802000000000E-01	2.802000000000E-01	-1.569000000000E-01
	O4	O	-2.802000000000E-01	-2.802000000000E-01	3.431000000000E-01
	O5	O	-3.203000000000E-01	-1.351000000000E-01	2.500000000000E-01
	O6	O	3.203000000000E-01	1.351000000000E-01	-2.500000000000E-01
	O7	O	1.351000000000E-01	3.203000000000E-01	-2.500000000000E-01
	O8	O	-1.351000000000E-01	-3.203000000000E-01	2.500000000000E-01
	O9	O	-4.063000000000E-01	1.519000000000E-01	2.500000000000E-01
	O10	O	4.063000000000E-01	-1.519000000000E-01	-2.500000000000E-01
	O11	O	-1.519000000000E-01	4.063000000000E-01	-2.500000000000E-01
	O12	O	1.519000000000E-01	-4.063000000000E-01	2.500000000000E-01
	O13	O	-4.860000000000E-01	1.764000000000E-01	8.400000000000E-02
	O14	O	4.860000000000E-01	-1.764000000000E-01	-4.160000000000E-01
	O15	O	-1.764000000000E-01	4.860000000000E-01	-8.400000000000E-02
	O16	O	1.764000000000E-01	-4.860000000000E-01	4.160000000000E-01
	O17	O	4.860000000000E-01	-1.764000000000E-01	-8.400000000000E-02
	O18	O	-4.860000000000E-01	1.764000000000E-01	4.160000000000E-01
	O19	O	1.764000000000E-01	-4.860000000000E-01	8.400000000000E-02
	O20	O	-1.764000000000E-01	4.860000000000E-01	-4.160000000000E-01
	O21	O	-3.057000000000E-01	1.015000000000E-01	9.110000000000E-02
	O22	O	3.057000000000E-01	-1.015000000000E-01	-4.089000000000E-01
	O23	O	-1.015000000000E-01	3.057000000000E-01	-9.110000000000E-02
	O24	O	1.015000000000E-01	-3.057000000000E-01	4.089000000000E-01
	O25	O	3.057000000000E-01	-1.015000000000E-01	-9.110000000000E-02
	O26	O	-3.057000000000E-01	1.015000000000E-01	4.089000000000E-01
	O27	O	1.015000000000E-01	-3.057000000000E-01	9.110000000000E-02
	O28	O	-1.015000000000E-01	3.057000000000E-01	-4.089000000000E-01
	O29	O	-3.311000000000E-01	-7.700000000000E-03	1.568000000000E-01
	O30	O	3.311000000000E-01	7.700000000000E-03	-3.432000000000E-01
	O31	O	7.700000000000E-03	3.311000000000E-01	-1.568000000000E-01
	O32	O	-7.700000000000E-03	-3.311000000000E-01	3.432000000000E-01
	O33	O	3.311000000000E-01	7.700000000000E-03	-1.568000000000E-01
	O34	O	-3.311000000000E-01	-7.700000000000E-03	3.432000000000E-01
	O35	O	-7.700000000000E-03	-3.311000000000E-01	1.568000000000E-01
	O36	O	7.700000000000E-03	3.311000000000E-01	-3.432000000000E-01
	O37	O	1.909000000000E-01	-9.410000000000E-02	2.500000000000E-01
	O38	O	-1.909000000000E-01	9.410000000000E-02	-2.500000000000E-01
	O39	O	9.410000000000E-02	-1.909000000000E-01	-2.500000000000E-01
	O40	O	-9.410000000000E-02	1.909000000000E-01	2.500000000000E-01
	O41	O	2.558000000000E-01	-9.080000000000E-02	8.690000000000E-02
	O42	O	-2.558000000000E-01	9.080000000000E-02	-4.131000000000E-01
	O43	O	9.080000000000E-02	-2.558000000000E-01	-8.690000000000E-02
	O44	O	-9.080000000000E-02	2.558000000000E-01	4.131000000000E-01
	O45	O	-2.558000000000E-01	9.080000000000E-02	-8.690000000000E-02
	O46	O	2.558000000000E-01	-9.080000000000E-02	4.131000000000E-01
	O47	O	-9.080000000000E-02	2.558000000000E-01	8.690000000000E-02
	O48	O	9.080000000000E-02	-2.558000000000E-01	-4.131000000000E-01
	O49	O	1.351000000000E-01	-1.107000000000E-01	8.820000000000E-02
	O50	O	-1.351000000000E-01	1.107000000000E-01	-4.118000000000E-01
	O51	O	1.107000000000E-01	-1.351000000000E-01	-8.820000000000E-02
	O52	O	-1.107000000000E-01	1.351000000000E-01	4.118000000000E-01
	O53	O	-1.351000000000E-01	1.107000000000E-01	-8.820000000000E-02
	O54	O	1.351000000000E-01	-1.107000000000E-01	4.118000000000E-01
	O55	O	-1.107000000000E-01	1.351000000000E-01	8.820000000000E-02
	O56	O	1.107000000000E-01	-1.351000000000E-01	-4.118000000000E-01
	O57	O	6.440000000000E-02	6.440000000000E-02	1.365000000000E-01
	O58	O	-6.440000000000E-02	-6.440000000000E-02	-3.635000000000E-01
	O59	O	-6.440000000000E-02	-6.440000000000E-02	-1.365000000000E-01
	O60	O	6.440000000000E-02	6.440000000000E-02	3.635000000000E-01
	O61	O	-3.429000000000E-01	-3.429000000000E-01	2.500000000000E-01
	O62	O	3.429000000000E-01	3.429000000000E-01	-2.500000000000E-01
	O63	O	-2.457000000000E-01	-4.311000000000E-01	8.740000000000E-02
	O64	O	2.457000000000E-01	4.311000000000E-01	-4.126000000000E-01
	O65	O	4.311000000000E-01	2.457000000000E-01	-8.740000000000E-02
	O66	O	-4.311000000000E-01	-2.457000000000E-01	4.126000000000E-01
	O67	O	2.457000000000E-01	4.311000000000E-01	-8.740000000000E-02
	O68	O	-2.457000000000E-01	-4.311000000000E-01	4.126000000000E-01
	O69	O	-4.311000000000E-01	-2.457000000000E-01	8.740000000000E-02
	O70	O	4.311000000000E-01	2.457000000000E-01	-4.126000000000E-01
	O71	O	-1.650000000000E-01	-1.650000000000E-01	2.500000000000E-01
	O72	O	1.650000000000E-01	1.650000000000E-01	-2.500000000000E-01
	O73	O	2.890000000000E-01	-2.188000000000E-01	-2.920000000000E-02
	O74	O	-2.890000000000E-01	2.188000000000E-01	4.708000000000E-01
	O75	O	2.188000000000E-01	-2.890000000000E-01	2.920000000000E-02
	O76	O	-2.188000000000E-01	2.890000000000E-01	-4.708000000000E-01
	O77	O	-2.890000000000E-01	2.188000000000E-01	2.920000000000E-02
	O78	O	2.890000000000E-01	-2.188000000000E-01	-4.708000000000E-01
	O79	O	-2.188000000000E-01	2.890000000000E-01	-2.920000000000E-02
	O80	O	2.188000000000E-01	-2.890000000000E-01	4.708000000000E-01
	O81	O	4.421000000000E-01	-2.499000000000E-01	2.590000000000E-02
	O82	O	-4.421000000000E-01	2.499000000000E-01	-4.741000000000E-01
	O83	O	2.499000000000E-01	-4.421000000000E-01	-2.590000000000E-02
	O84	O	-2.499000000000E-01	4.421000000000E-01	4.741000000000E-01
	O85	O	-4.421000000000E-01	2.499000000000E-01	-2.590000000000E-02
	O86	O	4.421000000000E-01	-2.499000000000E-01	4.741000000000E-01
	O87	O	-2.499000000000E-01	4.421000000000E-01	2.590000000000E-02
	O88	O	2.499000000000E-01	-4.421000000000E-01	-4.741000000000E-01
	O89	O	3.732000000000E-01	3.732000000000E-01	4.530000000000E-02
	O90	O	-3.732000000000E-01	-3.732000000000E-01	-4.547000000000E-01
	O91	O	-3.732000000000E-01	-3.732000000000E-01	-4.530000000000E-02
	O92	O	3.732000000000E-01	3.732000000000E-01	4.547000000000E-01
	Si93	Si	-3.825000000000E-01	1.055000000000E-01	1.449000000000E-01
	Si94	Si	3.825000000000E-01	-1.055000000000E-01	-3.551000000000E-01
	Si95	Si	-1.055000000000E-01	3.825000000000E-01	-1.449000000000E-01
	Si96	Si	1.055000000000E-01	-3.825000000000E-01	3.551000000000E-01
	Si97	Si	3.825000000000E-01	-1.055000000000E-01	-1.449000000000E-01
	Si98	Si	-3.825000000000E-01	1.055000000000E-01	3.551000000000E-01
	Si99	Si	1.055000000000E-01	-3.825000000000E-01	1.449000000000E-01
	Si100	Si	-1.055000000000E-01	3.825000000000E-01	-3.551000000000E-01
	Si101	Si	1.610000000000E-01	-5.720000000000E-02	1.411000000000E-01
	Si102	Si	-1.610000000000E-01	5.720000000000E-02	-3.589000000000E-01
	Si103	Si	5.720000000000E-02	-1.610000000000E-01	-1.411000000000E-01
	Si104	Si	-5.720000000000E-02	1.610000000000E-01	3.589000000000E-01
	Si105	Si	-1.610000000000E-01	5.720000000000E-02	-1.411000000000E-01
	Si106	Si	1.610000000000E-01	-5.720000000000E-02	3.589000000000E-01
	Si107	Si	-5.720000000000E-02	1.610000000000E-01	1.411000000000E-01
	Si108	Si	5.720000000000E-02	-1.610000000000E-01	-3.589000000000E-01
	Si109	Si	3.233000000000E-01	-1.657000000000E-01	-2.000000000000E-03
	Si110	Si	-3.233000000000E-01	1.657000000000E-01	4.980000000000E-01
	Si111	Si	1.657000000000E-01	-3.233000000000E-01	2.000000000000E-03
	Si112	Si	-1.657000000000E-01	3.233000000000E-01	-4.980000000000E-01
	Si113	Si	-3.233000000000E-01	1.657000000000E-01	2.000000000000E-03
	Si114	Si	3.233000000000E-01	-1.657000000000E-01	-4.980000000000E-01
	Si115	Si	-1.657000000000E-01	3.233000000000E-01	-2.000000000000E-03
	Si116	Si	1.657000000000E-01	-3.233000000000E-01	4.980000000000E-01
	Si117	Si	4.694000000000E-01	2.606000000000E-01	4.300000000000E-03
	Si118	Si	-4.694000000000E-01	-2.606000000000E-01	-4.957000000000E-01
	Si119	Si	-2.606000000000E-01	-4.694000000000E-01	-4.300000000000E-03
	Si120	Si	2.606000000000E-01	4.694000000000E-01	4.957000000000E-01
	Si121	Si	-4.694000000000E-01	-2.606000000000E-01	-4.300000000000E-03
	Si122	Si	4.694000000000E-01	2.606000000000E-01	4.957000000000E-01
	Si123	Si	2.606000000000E-01	4.694000000000E-01	4.300000000000E-03
	Si124	Si	-2.606000000000E-01	-4.694000000000E-01	-4.957000000000E-01
	Si125	Si	-2.876000000000E-01	-7.800000000000E-02	2.500000000000E-01
	Si126	Si	2.876000000000E-01	7.800000000000E-02	-2.500000000000E-01
	Si127	Si	7.800000000000E-02	2.876000000000E-01	-2.500000000000E-01
	Si128	Si	-7.800000000000E-02	-2.876000000000E-01	2.500000000000E-01
	Si129	Si	-3.251000000000E-01	-3.251000000000E-01	1.447000000000E-01
	Si130	Si	3.251000000000E-01	3.251000000000E-01	-3.553000000000E-01
	Si131	Si	3.251000000000E-01	3.251000000000E-01	-1.447000000000E-01
	Si132	Si	-3.251000000000E-01	-3.251000000000E-01	3.553000000000E-01
	Si133	Si	1.886000000000E-01	-1.886000000000E-01	0.000000000000E+00
	Si134	Si	-1.886000000000E-01	1.886000000000E-01	5.000000000000E-01
	Si135	Si	-1.886000000000E-01	1.886000000000E-01	0.000000000000E+00
	Si136	Si	1.886000000000E-01	-1.886000000000E-01	5.000000000000E-01
	Si137	Si	-2.539000000000E-01	-2.539000000000E-01	2.500000000000E-01
	Si138	Si	2.539000000000E-01	2.539000000000E-01	-2.500000000000E-01


data_ BPH
_chemical_name_common		'BPH'
_cell_length_a		13.05700000
_cell_length_b		13.05700000
_cell_length_c		12.96900000
_cell_angle_alpha		90.000000
_cell_angle_beta		90.000000
_cell_angle_gamma		120.000000
_space group_name_H-M_alt		'P 1'
_space_group_IT_number		1

loop_
	_atom_site_label
	_atom_site_type_symbol
	_atom_site_fract_x
	_atom_site_fract_y
	_atom_site_fract_z
	O1	O	4.180000000000E-01	2.216000000000E-01	3.073000000000E-01
	O2	O	-2.216000000000E-01	1.964000000000E-01	3.073000000000E-01
	O3	O	-1.964000000000E-01	-4.180000000000E-01	3.073000000000E-01
	O4	O	1.964000000000E-01	-2.216000000000E-01	-3.073000000000E-01
	O5	O	-4.180000000000E-01	-1.964000000000E-01	-3.073000000000E-01
	O6	O	2.216000000000E-01	4.180000000000E-01	-3.073000000000E-01
	O7	O	2.216000000000E-01	4.180000000000E-01	3.073000000000E-01
	O8	O	-4.180000000000E-01	-1.964000000000E-01	3.073000000000E-01
	O9	O	1.964000000000E-01	-2.216000000000E-01	3.073000000000E-01
	O10	O	4.180000000000E-01	2.216000000000E-01	-3.073000000000E-01
	O11	O	-1.964000000000E-01	-4.180000000000E-01	-3.073000000000E-01
	O12	O	-2.216000000000E-01	1.964000000000E-01	-3.073000000000E-01
	O13	O	-4.016000000000E-01	5.551115123126E-17	2.364000000000E-01
	O14	O	-3.927319060292E-17	-4.016000000000E-01	2.364000000000E-01
	O15	O	4.016000000000E-01	4.016000000000E-01	2.364000000000E-01
	O16	O	-4.016000000000E-01	-8.326672684689E-17	-2.364000000000E-01
	O17	O	4.016000000000E-01	4.016000000000E-01	-2.364000000000E-01
	O18	O	3.927319060292E-17	-4.016000000000E-01	-2.364000000000E-01
	O19	O	-4.336000000000E-01	3.605000000000E-01	1.655000000000E-01
	O20	O	-3.605000000000E-01	2.059000000000E-01	1.655000000000E-01
	O21	O	-2.059000000000E-01	4.336000000000E-01	1.655000000000E-01
	O22	O	2.059000000000E-01	-3.605000000000E-01	-1.655000000000E-01
	O23	O	4.336000000000E-01	-2.059000000000E-01	-1.655000000000E-01
	O24	O	3.605000000000E-01	-4.336000000000E-01	-1.655000000000E-01
	O25	O	3.605000000000E-01	-4.336000000000E-01	1.655000000000E-01
	O26	O	4.336000000000E-01	-2.059000000000E-01	1.655000000000E-01
	O27	O	2.059000000000E-01	-3.605000000000E-01	1.655000000000E-01
	O28	O	-4.336000000000E-01	3.605000000000E-01	-1.655000000000E-01
	O29	O	-2.059000000000E-01	4.336000000000E-01	-1.655000000000E-01
	O30	O	-3.605000000000E-01	2.059000000000E-01	-1.655000000000E-01
	O31	O	-4.195000000000E-01	4.387000000000E-01	3.548000000000E-01
	O32	O	-4.387000000000E-01	1.418000000000E-01	3.548000000000E-01
	O33	O	-1.418000000000E-01	4.195000000000E-01	3.548000000000E-01
	O34	O	1.418000000000E-01	-4.387000000000E-01	-3.548000000000E-01
	O35	O	4.195000000000E-01	-1.418000000000E-01	-3.548000000000E-01
	O36	O	4.387000000000E-01	-4.195000000000E-01	-3.548000000000E-01
	O37	O	4.387000000000E-01	-4.195000000000E-01	3.548000000000E-01
	O38	O	4.195000000000E-01	-1.418000000000E-01	3.548000000000E-01
	O39	O	1.418000000000E-01	-4.387000000000E-01	3.548000000000E-01
	O40	O	-4.195000000000E-01	4.387000000000E-01	-3.548000000000E-01
	O41	O	-1.418000000000E-01	4.195000000000E-01	-3.548000000000E-01
	O42	O	-4.387000000000E-01	1.418000000000E-01	-3.548000000000E-01
	O43	O	3.314000000000E-01	1.110223024625E-16	3.647000000000E-01
	O44	O	-1.963659530146E-17	3.314000000000E-01	3.647000000000E-01
	O45	O	-3.314000000000E-01	-3.314000000000E-01	3.647000000000E-01
	O46	O	3.314000000000E-01	1.387778780781E-16	-3.647000000000E-01
	O47	O	-3.314000000000E-01	-3.314000000000E-01	-3.647000000000E-01
	O48	O	1.963659530146E-17	3.314000000000E-01	-3.647000000000E-01
	O49	O	-4.380000000000E-01	-2.665000000000E-01	-5.000000000000E-01
	O50	O	2.665000000000E-01	-1.715000000000E-01	-5.000000000000E-01
	O51	O	1.715000000000E-01	4.380000000000E-01	-5.000000000000E-01
	O52	O	-1.715000000000E-01	2.665000000000E-01	-5.000000000000E-01
	O53	O	4.380000000000E-01	1.715000000000E-01	-5.000000000000E-01
	O54	O	-2.665000000000E-01	-4.380000000000E-01	-5.000000000000E-01
	O55	O	3.333333333333E-01	-3.333333333333E-01	0.000000000000E+00
	O56	O	-3.333333333333E-01	3.333333333333E-01	0.000000000000E+00
	Si57	Si	4.916000000000E-01	3.557000000000E-01	2.659000000000E-01
	Si58	Si	-3.557000000000E-01	1.359000000000E-01	2.659000000000E-01
	Si59	Si	-1.359000000000E-01	-4.916000000000E-01	2.659000000000E-01
	Si60	Si	1.359000000000E-01	-3.557000000000E-01	-2.659000000000E-01
	Si61	Si	-4.916000000000E-01	-1.359000000000E-01	-2.659000000000E-01
	Si62	Si	3.557000000000E-01	4.916000000000E-01	-2.659000000000E-01
	Si63	Si	3.557000000000E-01	4.916000000000E-01	2.659000000000E-01
	Si64	Si	-4.916000000000E-01	-1.359000000000E-01	2.659000000000E-01
	Si65	Si	1.359000000000E-01	-3.557000000000E-01	2.659000000000E-01
	Si66	Si	4.916000000000E-01	3.557000000000E-01	-2.659000000000E-01
	Si67	Si	-1.359000000000E-01	-4.916000000000E-01	-2.659000000000E-01
	Si68	Si	-3.557000000000E-01	1.359000000000E-01	-2.659000000000E-01
	Si69	Si	-4.371000000000E-01	-3.033000000000E-01	3.817000000000E-01
	Si70	Si	3.033000000000E-01	-1.338000000000E-01	3.817000000000E-01
	Si71	Si	1.338000000000E-01	4.371000000000E-01	3.817000000000E-01
	Si72	Si	-1.338000000000E-01	3.033000000000E-01	-3.817000000000E-01
	Si73	Si	4.371000000000E-01	1.338000000000E-01	-3.817000000000E-01
	Si74	Si	-3.033000000000E-01	-4.371000000000E-01	-3.817000000000E-01
	Si75	Si	-3.033000000000E-01	-4.371000000000E-01	3.817000000000E-01
	Si76	Si	4.371000000000E-01	1.338000000000E-01	3.817000000000E-01
	Si77	Si	-1.338000000000E-01	3.033000000000E-01	3.817000000000E-01
	Si78	Si	-4.371000000000E-01	-3.033000000000E-01	-3.817000000000E-01
	Si79	Si	1.338000000000E-01	4.371000000000E-01	-3.817000000000E-01
	Si80	Si	3.033000000000E-01	-1.338000000000E-01	-3.817000000000E-01
	Si81	Si	3.333333333333E-01	-3.333333333333E-01	1.239000000000E-01
	Si82	Si	-3.333333333333E-01	3.333333333333E-01	-1.239000000000E-01
	Si83	Si	-3.333333333333E-01	3.333333333333E-01	1.239000000000E-01
	Si84	Si	3.333333333333E-01	-3.333333333333E-01	-1.239000000000E-01


data_ BSV
_chemical_name_common		'BSV'
_cell_length_a		14.94067027
_cell_length_b		14.94067027
_cell_length_c		14.94067027
_cell_angle_alpha		109.471221
_cell_angle_beta		109.471221
_cell_angle_gamma		109.471221
_space group_name_H-M_alt		'P 1'
_space_group_IT_number		1

loop_
	_atom_site_label
	_atom_site_type_symbol
	_atom_site_fract_x
	_atom_site_fract_y
	_atom_site_fract_z
	O1	O	4.022000000000E-01	2.410000000000E-01	-4.816000000000E-01
	O2	O	2.226000000000E-01	-1.162000000000E-01	-1.840000000000E-02
	O3	O	9.780000000000E-02	-3.838000000000E-01	-1.612000000000E-01
	O4	O	2.774000000000E-01	2.590000000000E-01	-3.388000000000E-01
	O5	O	-4.816000000000E-01	4.022000000000E-01	2.410000000000E-01
	O6	O	2.410000000000E-01	-4.816000000000E-01	4.022000000000E-01
	O7	O	-3.388000000000E-01	2.774000000000E-01	2.590000000000E-01
	O8	O	-1.162000000000E-01	-1.840000000000E-02	2.226000000000E-01
	O9	O	-1.840000000000E-02	2.226000000000E-01	-1.162000000000E-01
	O10	O	-3.838000000000E-01	-1.612000000000E-01	9.780000000000E-02
	O11	O	-1.612000000000E-01	9.780000000000E-02	-3.838000000000E-01
	O12	O	2.590000000000E-01	-3.388000000000E-01	2.774000000000E-01
	O13	O	2.590000000000E-01	9.780000000000E-02	-1.840000000000E-02
	O14	O	-3.838000000000E-01	2.774000000000E-01	-4.816000000000E-01
	O15	O	-1.162000000000E-01	4.022000000000E-01	-3.388000000000E-01
	O16	O	2.410000000000E-01	2.226000000000E-01	-1.612000000000E-01
	O17	O	9.780000000000E-02	-1.840000000000E-02	2.590000000000E-01
	O18	O	-1.840000000000E-02	2.590000000000E-01	9.780000000000E-02
	O19	O	2.226000000000E-01	-1.612000000000E-01	2.410000000000E-01
	O20	O	-4.816000000000E-01	-3.838000000000E-01	2.774000000000E-01
	O21	O	2.774000000000E-01	-4.816000000000E-01	-3.838000000000E-01
	O22	O	-3.388000000000E-01	-1.162000000000E-01	4.022000000000E-01
	O23	O	4.022000000000E-01	-3.388000000000E-01	-1.162000000000E-01
	O24	O	-1.612000000000E-01	2.410000000000E-01	2.226000000000E-01
	O25	O	-4.022000000000E-01	-2.410000000000E-01	4.816000000000E-01
	O26	O	-2.226000000000E-01	1.162000000000E-01	1.840000000000E-02
	O27	O	-9.780000000000E-02	3.838000000000E-01	1.612000000000E-01
	O28	O	-2.774000000000E-01	-2.590000000000E-01	3.388000000000E-01
	O29	O	4.816000000000E-01	-4.022000000000E-01	-2.410000000000E-01
	O30	O	-2.410000000000E-01	4.816000000000E-01	-4.022000000000E-01
	O31	O	3.388000000000E-01	-2.774000000000E-01	-2.590000000000E-01
	O32	O	1.162000000000E-01	1.840000000000E-02	-2.226000000000E-01
	O33	O	1.840000000000E-02	-2.226000000000E-01	1.162000000000E-01
	O34	O	3.838000000000E-01	1.612000000000E-01	-9.780000000000E-02
	O35	O	1.612000000000E-01	-9.780000000000E-02	3.838000000000E-01
	O36	O	-2.590000000000E-01	3.388000000000E-01	-2.774000000000E-01
	O37	O	-2.590000000000E-01	-9.780000000000E-02	1.840000000000E-02
	O38	O	3.838000000000E-01	-2.774000000000E-01	4.816000000000E-01
	O39	O	1.162000000000E-01	-4.022000000000E-01	3.388000000000E-01
	O40	O	-2.410000000000E-01	-2.226000000000E-01	1.612000000000E-01
	O41	O	-9.780000000000E-02	1.840000000000E-02	-2.590000000000E-01
	O42	O	1.840000000000E-02	-2.590000000000E-01	-9.780000000000E-02
	O43	O	-2.226000000000E-01	1.612000000000E-01	-2.410000000000E-01
	O44	O	4.816000000000E-01	3.838000000000E-01	-2.774000000000E-01
	O45	O	-2.774000000000E-01	4.816000000000E-01	3.838000000000E-01
	O46	O	3.388000000000E-01	1.162000000000E-01	-4.022000000000E-01
	O47	O	-4.022000000000E-01	3.388000000000E-01	1.162000000000E-01
	O48	O	1.612000000000E-01	-2.410000000000E-01	-2.226000000000E-01
	O49	O	3.882000000000E-01	4.218000000000E-01	-4.316000000000E-01
	O50	O	3.534000000000E-01	-1.802000000000E-01	-6.840000000000E-02
	O51	O	1.118000000000E-01	-3.198000000000E-01	3.360000000000E-02
	O52	O	1.466000000000E-01	7.820000000000E-02	4.664000000000E-01
	O53	O	-4.316000000000E-01	3.882000000000E-01	4.218000000000E-01
	O54	O	4.218000000000E-01	-4.316000000000E-01	3.882000000000E-01
	O55	O	4.664000000000E-01	1.466000000000E-01	7.820000000000E-02
	O56	O	-1.802000000000E-01	-6.840000000000E-02	3.534000000000E-01
	O57	O	-6.840000000000E-02	3.534000000000E-01	-1.802000000000E-01
	O58	O	-3.198000000000E-01	3.360000000000E-02	1.118000000000E-01
	O59	O	3.360000000000E-02	1.118000000000E-01	-3.198000000000E-01
	O60	O	7.820000000000E-02	4.664000000000E-01	1.466000000000E-01
	O61	O	7.820000000000E-02	1.118000000000E-01	-6.840000000000E-02
	O62	O	-3.198000000000E-01	1.466000000000E-01	-4.316000000000E-01
	O63	O	-1.802000000000E-01	3.882000000000E-01	4.664000000000E-01
	O64	O	4.218000000000E-01	3.534000000000E-01	3.360000000000E-02
	O65	O	1.118000000000E-01	-6.840000000000E-02	7.820000000000E-02
	O66	O	-6.840000000000E-02	7.820000000000E-02	1.118000000000E-01
	O67	O	3.534000000000E-01	3.360000000000E-02	4.218000000000E-01
	O68	O	-4.316000000000E-01	-3.198000000000E-01	1.466000000000E-01
	O69	O	1.466000000000E-01	-4.316000000000E-01	-3.198000000000E-01
	O70	O	4.664000000000E-01	-1.802000000000E-01	3.882000000000E-01
	O71	O	3.882000000000E-01	4.664000000000E-01	-1.802000000000E-01
	O72	O	3.360000000000E-02	4.218000000000E-01	3.534000000000E-01
	O73	O	-3.882000000000E-01	-4.218000000000E-01	4.316000000000E-01
	O74	O	-3.534000000000E-01	1.802000000000E-01	6.840000000000E-02
	O75	O	-1.118000000000E-01	3.198000000000E-01	-3.360000000000E-02
	O76	O	-1.466000000000E-01	-7.820000000000E-02	-4.664000000000E-01
	O77	O	4.316000000000E-01	-3.882000000000E-01	-4.218000000000E-01
	O78	O	-4.218000000000E-01	4.316000000000E-01	-3.882000000000E-01
	O79	O	-4.664000000000E-01	-1.466000000000E-01	-7.820000000000E-02
	O80	O	1.802000000000E-01	6.840000000000E-02	-3.534000000000E-01
	O81	O	6.840000000000E-02	-3.534000000000E-01	1.802000000000E-01
	O82	O	3.198000000000E-01	-3.360000000000E-02	-1.118000000000E-01
	O83	O	-3.360000000000E-02	-1.118000000000E-01	3.198000000000E-01
	O84	O	-7.820000000000E-02	-4.664000000000E-01	-1.466000000000E-01
	O85	O	-7.820000000000E-02	-1.118000000000E-01	6.840000000000E-02
	O86	O	3.198000000000E-01	-1.466000000000E-01	4.316000000000E-01
	O87	O	1.802000000000E-01	-3.882000000000E-01	-4.664000000000E-01
	O88	O	-4.218000000000E-01	-3.534000000000E-01	-3.360000000000E-02
	O89	O	-1.118000000000E-01	6.840000000000E-02	-7.820000000000E-02
	O90	O	6.840000000000E-02	-7.820000000000E-02	-1.118000000000E-01
	O91	O	-3.534000000000E-01	-3.360000000000E-02	-4.218000000000E-01
	O92	O	4.316000000000E-01	3.198000000000E-01	-1.466000000000E-01
	O93	O	-1.466000000000E-01	4.316000000000E-01	3.198000000000E-01
	O94	O	-4.664000000000E-01	1.802000000000E-01	-3.882000000000E-01
	O95	O	-3.882000000000E-01	-4.664000000000E-01	1.802000000000E-01
	O96	O	-3.360000000000E-02	-4.218000000000E-01	-3.534000000000E-01
	Si97	Si	4.628000000000E-01	3.698000000000E-01	-3.950000000000E-01
	Si98	Si	2.648000000000E-01	-1.422000000000E-01	-1.050000000000E-01
	Si99	Si	3.720000000000E-02	-3.578000000000E-01	-9.300000000000E-02
	Si100	Si	2.352000000000E-01	1.302000000000E-01	-4.070000000000E-01
	Si101	Si	-3.950000000000E-01	4.628000000000E-01	3.698000000000E-01
	Si102	Si	3.698000000000E-01	-3.950000000000E-01	4.628000000000E-01
	Si103	Si	-4.070000000000E-01	2.352000000000E-01	1.302000000000E-01
	Si104	Si	-1.422000000000E-01	-1.050000000000E-01	2.648000000000E-01
	Si105	Si	-1.050000000000E-01	2.648000000000E-01	-1.422000000000E-01
	Si106	Si	-3.578000000000E-01	-9.300000000000E-02	3.720000000000E-02
	Si107	Si	-9.300000000000E-02	3.720000000000E-02	-3.578000000000E-01
	Si108	Si	1.302000000000E-01	-4.070000000000E-01	2.352000000000E-01
	Si109	Si	1.302000000000E-01	3.720000000000E-02	-1.050000000000E-01
	Si110	Si	-3.578000000000E-01	2.352000000000E-01	-3.950000000000E-01
	Si111	Si	-1.422000000000E-01	4.628000000000E-01	-4.070000000000E-01
	Si112	Si	3.698000000000E-01	2.648000000000E-01	-9.300000000000E-02
	Si113	Si	3.720000000000E-02	-1.050000000000E-01	1.302000000000E-01
	Si114	Si	-1.050000000000E-01	1.302000000000E-01	3.720000000000E-02
	Si115	Si	2.648000000000E-01	-9.300000000000E-02	3.698000000000E-01
	Si116	Si	-3.950000000000E-01	-3.578000000000E-01	2.352000000000E-01
	Si117	Si	2.352000000000E-01	-3.950000000000E-01	-3.578000000000E-01
	Si118	Si	-4.070000000000E-01	-1.422000000000E-01	4.628000000000E-01
	Si119	Si	4.628000000000E-01	-4.070000000000E-01	-1.422000000000E-01
	Si120	Si	-9.300000000000E-02	3.698000000000E-01	2.648000000000E-01
	Si121	Si	-4.628000000000E-01	-3.698000000000E-01	3.950000000000E-01
	Si122	Si	-2.648000000000E-01	1.422000000000E-01	1.050000000000E-01
	Si123	Si	-3.720000000000E-02	3.578000000000E-01	9.300000000000E-02
	Si124	Si	-2.352000000000E-01	-1.302000000000E-01	4.070000000000E-01
	Si125	Si	3.950000000000E-01	-4.628000000000E-01	-3.698000000000E-01
	Si126	Si	-3.698000000000E-01	3.950000000000E-01	-4.628000000000E-01
	Si127	Si	4.070000000000E-01	-2.352000000000E-01	-1.302000000000E-01
	Si128	Si	1.422000000000E-01	1.050000000000E-01	-2.648000000000E-01
	Si129	Si	1.050000000000E-01	-2.648000000000E-01	1.422000000000E-01
	Si130	Si	3.578000000000E-01	9.300000000000E-02	-3.720000000000E-02
	Si131	Si	9.300000000000E-02	-3.720000000000E-02	3.578000000000E-01
	Si132	Si	-1.302000000000E-01	4.070000000000E-01	-2.352000000000E-01
	Si133	Si	-1.302000000000E-01	-3.720000000000E-02	1.050000000000E-01
	Si134	Si	3.578000000000E-01	-2.352000000000E-01	3.950000000000E-01
	Si135	Si	1.422000000000E-01	-4.628000000000E-01	4.070000000000E-01
	Si136	Si	-3.698000000000E-01	-2.648000000000E-01	9.300000000000E-02
	Si137	Si	-3.720000000000E-02	1.050000000000E-01	-1.302000000000E-01
	Si138	Si	1.050000000000E-01	-1.302000000000E-01	-3.720000000000E-02
	Si139	Si	-2.648000000000E-01	9.300000000000E-02	-3.698000000000E-01
	Si140	Si	3.950000000000E-01	3.578000000000E-01	-2.352000000000E-01
	Si141	Si	-2.352000000000E-01	3.950000000000E-01	3.578000000000E-01
	Si142	Si	4.070000000000E-01	1.422000000000E-01	-4.628000000000E-01
	Si143	Si	-4.628000000000E-01	4.070000000000E-01	1.422000000000E-01
	Si144	Si	9.300000000000E-02	-3.698000000000E-01	-2.648000000000E-01


data_ CAN
_chemical_name_common		'CAN'
_cell_length_a		24.98800000
_cell_length_b		24.98800000
_cell_length_c		5.25400000
_cell_angle_alpha		90.000000
_cell_angle_beta		90.000000
_cell_angle_gamma		120.000000
_space group_name_H-M_alt		'P 1'
_space_group_IT_number		1

loop_
	_atom_site_label
	_atom_site_type_symbol
	_atom_site_fract_x
	_atom_site_fract_y
	_atom_site_fract_z
	O1	O	-1.782500000000E-01	-4.163336342344E-17	0.000000000000E+00
	O2	O	1.782500000000E-01	2.775557561563E-17	-5.000000000000E-01
	O3	O	-2.052145228519E-17	-1.782500000000E-01	0.000000000000E+00
	O4	O	1.782500000000E-01	1.782500000000E-01	0.000000000000E+00
	O5	O	-1.782500000000E-01	-1.782500000000E-01	-5.000000000000E-01
	O6	O	2.052145228519E-17	1.782500000000E-01	-5.000000000000E-01
	O7	O	1.782500000000E-01	2.775557561563E-17	0.000000000000E+00
	O8	O	-1.782500000000E-01	-2.775557561563E-17	-5.000000000000E-01
	O9	O	2.052145228519E-17	1.782500000000E-01	0.000000000000E+00
	O10	O	-1.782500000000E-01	-1.782500000000E-01	0.000000000000E+00
	O11	O	1.782500000000E-01	1.782500000000E-01	-5.000000000000E-01
	O12	O	-2.052145228519E-17	-1.782500000000E-01	-5.000000000000E-01
	O13	O	-9.930000000000E-02	-1.986000000000E-01	2.500000000000E-01
	O14	O	9.930000000000E-02	1.986000000000E-01	-2.500000000000E-01
	O15	O	1.986000000000E-01	9.930000000000E-02	2.500000000000E-01
	O16	O	-9.930000000000E-02	9.930000000000E-02	2.500000000000E-01
	O17	O	9.930000000000E-02	-9.930000000000E-02	-2.500000000000E-01
	O18	O	-1.986000000000E-01	-9.930000000000E-02	-2.500000000000E-01
	O19	O	-2.175250000000E-01	6.495000000000E-02	2.500000000000E-01
	O20	O	-2.824750000000E-01	-6.495000000000E-02	-2.500000000000E-01
	O21	O	-6.495000000000E-02	-2.824750000000E-01	2.500000000000E-01
	O22	O	-2.175250000000E-01	-2.824750000000E-01	2.500000000000E-01
	O23	O	-2.824750000000E-01	-2.175250000000E-01	-2.500000000000E-01
	O24	O	6.495000000000E-02	-2.175250000000E-01	-2.500000000000E-01
	Si25	Si	2.095000000000E-01	1.684000000000E-01	2.500000000000E-01
	Si26	Si	-2.095000000000E-01	-1.684000000000E-01	-2.500000000000E-01
	Si27	Si	-1.684000000000E-01	4.110000000000E-02	2.500000000000E-01
	Si28	Si	-4.110000000000E-02	-2.095000000000E-01	2.500000000000E-01
	Si29	Si	4.110000000000E-02	2.095000000000E-01	-2.500000000000E-01
	Si30	Si	1.684000000000E-01	-4.110000000000E-02	-2.500000000000E-01
	Si31	Si	4.110000000000E-02	-1.684000000000E-01	-2.500000000000E-01
	Si32	Si	-2.095000000000E-01	-4.110000000000E-02	-2.500000000000E-01
	Si33	Si	1.684000000000E-01	2.095000000000E-01	-2.500000000000E-01
	Si34	Si	-1.684000000000E-01	-2.095000000000E-01	2.500000000000E-01
	Si35	Si	2.095000000000E-01	4.110000000000E-02	2.500000000000E-01
	Si36	Si	-4.110000000000E-02	1.684000000000E-01	2.500000000000E-01
	O37	O	-2.052145228519E-17	3.217500000000E-01	0.000000000000E+00
	O38	O	-1.782500000000E-01	3.217500000000E-01	0.000000000000E+00
	O39	O	3.217500000000E-01	-1.782500000000E-01	0.000000000000E+00
	O40	O	3.217500000000E-01	3.217500000000E-01	0.000000000000E+00
	O41	O	-5.000000000000E-01	-1.782500000000E-01	0.000000000000E+00
	O42	O	1.782500000000E-01	-3.217500000000E-01	-5.000000000000E-01
	O43	O	-3.217500000000E-01	1.782500000000E-01	-5.000000000000E-01
	O44	O	-3.217500000000E-01	-3.217500000000E-01	-5.000000000000E-01
	O45	O	-5.000000000000E-01	3.217500000000E-01	0.000000000000E+00
	O46	O	-2.052145228519E-17	3.217500000000E-01	-5.000000000000E-01
	O47	O	-5.000000000000E-01	-1.782500000000E-01	-5.000000000000E-01
	O48	O	-5.000000000000E-01	3.217500000000E-01	-5.000000000000E-01
	O49	O	3.217500000000E-01	-5.000000000000E-01	0.000000000000E+00
	O50	O	-9.930000000000E-02	3.014000000000E-01	2.500000000000E-01
	O51	O	4.007000000000E-01	-1.986000000000E-01	2.500000000000E-01
	O52	O	4.007000000000E-01	3.014000000000E-01	2.500000000000E-01
	O53	O	1.782500000000E-01	-3.217500000000E-01	0.000000000000E+00
	O54	O	9.930000000000E-02	-3.014000000000E-01	-2.500000000000E-01
	O55	O	-4.007000000000E-01	1.986000000000E-01	-2.500000000000E-01
	O56	O	-4.007000000000E-01	-3.014000000000E-01	-2.500000000000E-01
	O57	O	-3.217500000000E-01	1.782500000000E-01	0.000000000000E+00
	O58	O	1.986000000000E-01	-4.007000000000E-01	2.500000000000E-01
	O59	O	-3.014000000000E-01	9.930000000000E-02	2.500000000000E-01
	O60	O	-3.014000000000E-01	-4.007000000000E-01	2.500000000000E-01
	O61	O	-3.217500000000E-01	-3.217500000000E-01	0.000000000000E+00
	O62	O	-9.930000000000E-02	-4.007000000000E-01	2.500000000000E-01
	O63	O	4.007000000000E-01	9.930000000000E-02	2.500000000000E-01
	O64	O	4.007000000000E-01	-4.007000000000E-01	2.500000000000E-01
	O65	O	-1.782500000000E-01	5.000000000000E-01	0.000000000000E+00
	O66	O	9.930000000000E-02	4.007000000000E-01	-2.500000000000E-01
	O67	O	-4.007000000000E-01	-9.930000000000E-02	-2.500000000000E-01
	O68	O	-4.007000000000E-01	4.007000000000E-01	-2.500000000000E-01
	O69	O	-1.782500000000E-01	3.217500000000E-01	-5.000000000000E-01
	O70	O	-1.986000000000E-01	4.007000000000E-01	-2.500000000000E-01
	O71	O	3.014000000000E-01	-9.930000000000E-02	-2.500000000000E-01
	O72	O	3.014000000000E-01	4.007000000000E-01	-2.500000000000E-01
	O73	O	3.217500000000E-01	-1.782500000000E-01	-5.000000000000E-01
	O74	O	-2.175250000000E-01	-4.350500000000E-01	2.500000000000E-01
	O75	O	2.824750000000E-01	6.495000000000E-02	2.500000000000E-01
	O76	O	2.824750000000E-01	-4.350500000000E-01	2.500000000000E-01
	O77	O	3.217500000000E-01	3.217500000000E-01	-5.000000000000E-01
	O78	O	-2.824750000000E-01	4.350500000000E-01	-2.500000000000E-01
	O79	O	2.175250000000E-01	-6.495000000000E-02	-2.500000000000E-01
	O80	O	2.175250000000E-01	4.350500000000E-01	-2.500000000000E-01
	O81	O	1.782500000000E-01	-5.000000000000E-01	-5.000000000000E-01
	O82	O	-6.495000000000E-02	2.175250000000E-01	2.500000000000E-01
	O83	O	4.350500000000E-01	-2.824750000000E-01	2.500000000000E-01
	O84	O	4.350500000000E-01	2.175250000000E-01	2.500000000000E-01
	O85	O	2.052145228519E-17	-3.217500000000E-01	-5.000000000000E-01
	O86	O	-2.175250000000E-01	2.175250000000E-01	2.500000000000E-01
	O87	O	2.824750000000E-01	-2.824750000000E-01	2.500000000000E-01
	O88	O	2.824750000000E-01	2.175250000000E-01	2.500000000000E-01
	O89	O	-5.000000000000E-01	1.782500000000E-01	-5.000000000000E-01
	O90	O	-2.824750000000E-01	2.824750000000E-01	-2.500000000000E-01
	O91	O	2.175250000000E-01	-2.175250000000E-01	-2.500000000000E-01
	O92	O	2.175250000000E-01	2.824750000000E-01	-2.500000000000E-01
	O93	O	-5.000000000000E-01	-3.217500000000E-01	-5.000000000000E-01
	O94	O	6.495000000000E-02	2.824750000000E-01	-2.500000000000E-01
	O95	O	-4.350500000000E-01	-2.175250000000E-01	-2.500000000000E-01
	O96	O	-4.350500000000E-01	2.824750000000E-01	-2.500000000000E-01
	O97	O	-3.217500000000E-01	-1.110223024625E-16	-5.000000000000E-01
	Si98	Si	2.095000000000E-01	-3.316000000000E-01	2.500000000000E-01
	Si99	Si	-2.905000000000E-01	1.684000000000E-01	2.500000000000E-01
	Si100	Si	-2.905000000000E-01	-3.316000000000E-01	2.500000000000E-01
	O101	O	1.782500000000E-01	-5.000000000000E-01	0.000000000000E+00
	Si102	Si	-2.095000000000E-01	3.316000000000E-01	-2.500000000000E-01
	Si103	Si	2.905000000000E-01	-1.684000000000E-01	-2.500000000000E-01
	Si104	Si	2.905000000000E-01	3.316000000000E-01	-2.500000000000E-01
	O105	O	-3.217500000000E-01	-1.110223024625E-16	0.000000000000E+00
	Si106	Si	-1.684000000000E-01	-4.589000000000E-01	2.500000000000E-01
	Si107	Si	3.316000000000E-01	4.110000000000E-02	2.500000000000E-01
	Si108	Si	3.316000000000E-01	-4.589000000000E-01	2.500000000000E-01
	O109	O	-3.217500000000E-01	-5.000000000000E-01	0.000000000000E+00
	Si110	Si	-4.110000000000E-02	2.905000000000E-01	2.500000000000E-01
	Si111	Si	4.589000000000E-01	-2.095000000000E-01	2.500000000000E-01
	Si112	Si	4.589000000000E-01	2.905000000000E-01	2.500000000000E-01
	O113	O	-3.217500000000E-01	-5.000000000000E-01	-5.000000000000E-01
	Si114	Si	4.110000000000E-02	-2.905000000000E-01	-2.500000000000E-01
	Si115	Si	-4.589000000000E-01	2.095000000000E-01	-2.500000000000E-01
	Si116	Si	-4.589000000000E-01	-2.905000000000E-01	-2.500000000000E-01
	O117	O	-1.782500000000E-01	5.000000000000E-01	-5.000000000000E-01
	Si118	Si	1.684000000000E-01	4.589000000000E-01	-2.500000000000E-01
	Si119	Si	-3.316000000000E-01	-4.110000000000E-02	-2.500000000000E-01
	Si120	Si	-3.316000000000E-01	4.589000000000E-01	-2.500000000000E-01
	O121	O	3.217500000000E-01	2.775557561563E-17	-5.000000000000E-01
	Si122	Si	4.110000000000E-02	3.316000000000E-01	-2.500000000000E-01
	Si123	Si	-4.589000000000E-01	-1.684000000000E-01	-2.500000000000E-01
	Si124	Si	-4.589000000000E-01	3.316000000000E-01	-2.500000000000E-01
	O125	O	3.217500000000E-01	-5.000000000000E-01	-5.000000000000E-01
	Si126	Si	-2.095000000000E-01	4.589000000000E-01	-2.500000000000E-01
	Si127	Si	2.905000000000E-01	-4.110000000000E-02	-2.500000000000E-01
	Si128	Si	2.905000000000E-01	4.589000000000E-01	-2.500000000000E-01
	O129	O	3.217500000000E-01	0.000000000000E+00	0.000000000000E+00
	Si130	Si	1.684000000000E-01	-2.905000000000E-01	-2.500000000000E-01
	Si131	Si	-3.316000000000E-01	2.095000000000E-01	-2.500000000000E-01
	Si132	Si	-3.316000000000E-01	-2.905000000000E-01	-2.500000000000E-01
	O133	O	2.052145228519E-17	-3.217500000000E-01	0.000000000000E+00
	Si134	Si	-1.684000000000E-01	2.905000000000E-01	2.500000000000E-01
	Si135	Si	3.316000000000E-01	-2.095000000000E-01	2.500000000000E-01
	Si136	Si	3.316000000000E-01	2.905000000000E-01	2.500000000000E-01
	O137	O	-5.000000000000E-01	1.782500000000E-01	0.000000000000E+00
	Si138	Si	2.095000000000E-01	-4.589000000000E-01	2.500000000000E-01
	Si139	Si	-2.905000000000E-01	4.110000000000E-02	2.500000000000E-01
	Si140	Si	-2.905000000000E-01	-4.589000000000E-01	2.500000000000E-01
	O141	O	-5.000000000000E-01	-3.217500000000E-01	0.000000000000E+00
	Si142	Si	-4.110000000000E-02	-3.316000000000E-01	2.500000000000E-01
	Si143	Si	4.589000000000E-01	1.684000000000E-01	2.500000000000E-01
	Si144	Si	4.589000000000E-01	-3.316000000000E-01	2.500000000000E-01


data_ CAS
_chemical_name_common		'CAS'
_cell_length_a		7.53888188
_cell_length_b		15.07776376
_cell_length_c		17.22700000
_cell_angle_alpha		90.000000
_cell_angle_beta		90.000000
_cell_angle_gamma		40.802538
_space group_name_H-M_alt		'P 1'
_space_group_IT_number		1

loop_
	_atom_site_label
	_atom_site_type_symbol
	_atom_site_fract_x
	_atom_site_fract_y
	_atom_site_fract_z
	O1	O	1.730000000000E-01	8.650000000000E-02	1.159000000000E-01
	O2	O	-1.730000000000E-01	-8.650000000000E-02	-3.841000000000E-01
	O3	O	-1.730000000000E-01	-8.650000000000E-02	-1.159000000000E-01
	O4	O	1.730000000000E-01	8.650000000000E-02	3.841000000000E-01
	O5	O	5.000000000000E-01	-1.457687548427E-17	0.000000000000E+00
	O6	O	5.000000000000E-01	-1.457687548427E-17	5.000000000000E-01
	O7	O	-9.566999447395E-17	2.500000000000E-01	0.000000000000E+00
	O8	O	2.635740026272E-17	2.500000000000E-01	5.000000000000E-01
	O9	O	3.576000000000E-01	1.788000000000E-01	9.810000000000E-02
	O10	O	-3.576000000000E-01	3.212000000000E-01	-4.019000000000E-01
	O11	O	-3.576000000000E-01	3.212000000000E-01	-9.810000000000E-02
	O12	O	3.576000000000E-01	1.788000000000E-01	4.019000000000E-01
	O13	O	-2.369000000000E-01	1.315500000000E-01	1.318000000000E-01
	O14	O	2.369000000000E-01	-1.315500000000E-01	-3.682000000000E-01
	O15	O	-2.631000000000E-01	1.184500000000E-01	-1.318000000000E-01
	O16	O	2.631000000000E-01	-1.184500000000E-01	3.682000000000E-01
	O17	O	2.369000000000E-01	-1.315500000000E-01	-1.318000000000E-01
	O18	O	-2.369000000000E-01	1.315500000000E-01	3.682000000000E-01
	O19	O	2.631000000000E-01	-1.184500000000E-01	1.318000000000E-01
	O20	O	-2.631000000000E-01	1.184500000000E-01	-3.682000000000E-01
	O21	O	8.510000000000E-02	4.255000000000E-02	2.500000000000E-01
	O22	O	-8.510000000000E-02	-4.255000000000E-02	-2.500000000000E-01
	O23	O	5.000000000000E-01	2.500000000000E-01	0.000000000000E+00
	O24	O	5.000000000000E-01	2.500000000000E-01	5.000000000000E-01
	Si25	Si	2.576000000000E-01	1.288000000000E-01	5.340000000000E-02
	Si26	Si	-2.576000000000E-01	-1.288000000000E-01	-4.466000000000E-01
	Si27	Si	-2.576000000000E-01	-1.288000000000E-01	-5.340000000000E-02
	Si28	Si	2.576000000000E-01	1.288000000000E-01	4.466000000000E-01
	Si29	Si	7.090000000000E-02	3.545000000000E-02	1.574000000000E-01
	Si30	Si	-7.090000000000E-02	-3.545000000000E-02	-3.426000000000E-01
	Si31	Si	-7.090000000000E-02	-3.545000000000E-02	-1.574000000000E-01
	Si32	Si	7.090000000000E-02	3.545000000000E-02	3.426000000000E-01
	Si33	Si	4.711000000000E-01	2.355500000000E-01	9.030000000000E-02
	Si34	Si	-4.711000000000E-01	2.644500000000E-01	-4.097000000000E-01
	Si35	Si	-4.711000000000E-01	2.644500000000E-01	-9.030000000000E-02
	Si36	Si	4.711000000000E-01	2.355500000000E-01	4.097000000000E-01
	O37	O	5.000000000000E-01	-5.000000000000E-01	0.000000000000E+00
	O38	O	2.631000000000E-01	3.815500000000E-01	1.318000000000E-01
	O39	O	-3.576000000000E-01	-1.788000000000E-01	-4.019000000000E-01
	O40	O	-2.631000000000E-01	-3.815500000000E-01	-3.682000000000E-01
	O41	O	-1.730000000000E-01	4.135000000000E-01	-1.159000000000E-01
	O42	O	8.510000000000E-02	-4.574500000000E-01	2.500000000000E-01
	O43	O	-3.576000000000E-01	-1.788000000000E-01	-9.810000000000E-02
	O44	O	-8.510000000000E-02	4.574500000000E-01	-2.500000000000E-01
	O45	O	5.000000000000E-01	-5.000000000000E-01	5.000000000000E-01
	O46	O	-5.000000000000E-01	-2.500000000000E-01	0.000000000000E+00
	O47	O	3.576000000000E-01	-3.212000000000E-01	4.019000000000E-01
	O48	O	-5.000000000000E-01	-2.500000000000E-01	5.000000000000E-01
	O49	O	-1.730000000000E-01	4.135000000000E-01	-3.841000000000E-01
	Si50	Si	2.576000000000E-01	-3.712000000000E-01	5.340000000000E-02
	O51	O	-2.369000000000E-01	-3.684500000000E-01	1.318000000000E-01
	Si52	Si	-2.576000000000E-01	3.712000000000E-01	-4.466000000000E-01
	O53	O	-1.761403706150E-16	-2.500000000000E-01	0.000000000000E+00
	Si54	Si	-2.576000000000E-01	3.712000000000E-01	-5.340000000000E-02
	O55	O	2.369000000000E-01	3.684500000000E-01	-3.682000000000E-01
	Si56	Si	2.576000000000E-01	-3.712000000000E-01	4.466000000000E-01
	O57	O	1.730000000000E-01	-4.135000000000E-01	3.841000000000E-01
	Si58	Si	7.090000000000E-02	-4.645500000000E-01	1.574000000000E-01
	O59	O	-2.631000000000E-01	-3.815500000000E-01	-1.318000000000E-01
	Si60	Si	-7.090000000000E-02	4.645500000000E-01	-3.426000000000E-01
	O61	O	6.241187272125E-17	-2.500000000000E-01	5.000000000000E-01
	Si62	Si	-7.090000000000E-02	4.645500000000E-01	-1.574000000000E-01
	O63	O	2.631000000000E-01	3.815500000000E-01	3.682000000000E-01
	Si64	Si	7.090000000000E-02	-4.645500000000E-01	3.426000000000E-01
	O65	O	1.730000000000E-01	-4.135000000000E-01	1.159000000000E-01
	Si66	Si	4.711000000000E-01	-2.644500000000E-01	9.030000000000E-02
	O67	O	2.369000000000E-01	3.684500000000E-01	-1.318000000000E-01
	Si68	Si	-4.711000000000E-01	-2.355500000000E-01	-4.097000000000E-01
	O69	O	3.576000000000E-01	-3.212000000000E-01	9.810000000000E-02
	Si70	Si	-4.711000000000E-01	-2.355500000000E-01	-9.030000000000E-02
	O71	O	-2.369000000000E-01	-3.684500000000E-01	3.682000000000E-01
	Si72	Si	4.711000000000E-01	-2.644500000000E-01	4.097000000000E-01


data_ CGF
_chemical_name_common		'CGF'
_cell_length_a		22.93378741
_cell_length_b		11.46689371
_cell_length_c		7.27300000
_cell_angle_alpha		85.901449
_cell_angle_beta		94.098551
_cell_angle_gamma		85.048519
_space group_name_H-M_alt		'P 1'
_space_group_IT_number		1

loop_
	_atom_site_label
	_atom_site_type_symbol
	_atom_site_fract_x
	_atom_site_fract_y
	_atom_site_fract_z
	O1	O	-1.070000000000E-01	-3.038000000000E-01	3.570000000000E-01
	O2	O	-1.519000000000E-01	-2.140000000000E-01	-3.570000000000E-01
	O3	O	1.070000000000E-01	3.038000000000E-01	-3.570000000000E-01
	O4	O	1.519000000000E-01	2.140000000000E-01	3.570000000000E-01
	O5	O	-3.790000000000E-02	-2.212000000000E-01	-3.890000000000E-01
	O6	O	-1.106000000000E-01	-7.580000000000E-02	3.890000000000E-01
	O7	O	3.790000000000E-02	2.212000000000E-01	3.890000000000E-01
	O8	O	1.106000000000E-01	7.580000000000E-02	-3.890000000000E-01
	O9	O	-5.660000000000E-02	3.234000000000E-01	1.917000000000E-01
	O10	O	1.617000000000E-01	-1.132000000000E-01	-1.917000000000E-01
	O11	O	5.660000000000E-02	-3.234000000000E-01	-1.917000000000E-01
	O12	O	-1.617000000000E-01	1.132000000000E-01	1.917000000000E-01
	O13	O	-4.180000000000E-02	3.488000000000E-01	-4.519000000000E-01
	O14	O	1.744000000000E-01	-8.360000000000E-02	4.519000000000E-01
	O15	O	4.180000000000E-02	-3.488000000000E-01	4.519000000000E-01
	O16	O	-1.744000000000E-01	8.360000000000E-02	-4.519000000000E-01
	O17	O	2.580000000000E-02	4.490000000000E-01	3.179000000000E-01
	O18	O	2.245000000000E-01	5.160000000000E-02	-3.179000000000E-01
	O19	O	-2.580000000000E-02	-4.490000000000E-01	-3.179000000000E-01
	O20	O	-2.245000000000E-01	-5.160000000000E-02	3.179000000000E-01
	O21	O	-2.330000000000E-02	-3.556000000000E-01	1.408000000000E-01
	O22	O	-1.778000000000E-01	-4.660000000000E-02	-1.408000000000E-01
	O23	O	2.330000000000E-02	3.556000000000E-01	-1.408000000000E-01
	O24	O	1.778000000000E-01	4.660000000000E-02	1.408000000000E-01
	O25	O	-1.176000000000E-01	-4.704000000000E-01	1.286000000000E-01
	O26	O	-2.352000000000E-01	-2.352000000000E-01	-1.286000000000E-01
	O27	O	1.176000000000E-01	4.704000000000E-01	-1.286000000000E-01
	O28	O	2.352000000000E-01	2.352000000000E-01	1.286000000000E-01
	O29	O	-1.242000000000E-01	-2.484000000000E-01	0.000000000000E+00
	O30	O	1.242000000000E-01	2.484000000000E-01	0.000000000000E+00
	O31	O	-9.090000000000E-02	4.054000000000E-01	-1.492000000000E-01
	O32	O	2.027000000000E-01	-1.818000000000E-01	1.492000000000E-01
	O33	O	9.090000000000E-02	-4.054000000000E-01	1.492000000000E-01
	O34	O	-2.027000000000E-01	1.818000000000E-01	-1.492000000000E-01
	O35	O	-1.683000000000E-01	3.366000000000E-01	7.530000000000E-02
	O36	O	1.683000000000E-01	-3.366000000000E-01	-7.530000000000E-02
	Si37	Si	1.083000000000E-01	-3.988000000000E-01	-6.170000000000E-02
	Si38	Si	-1.994000000000E-01	2.166000000000E-01	6.170000000000E-02
	Si39	Si	-1.083000000000E-01	3.988000000000E-01	6.170000000000E-02
	Si40	Si	1.994000000000E-01	-2.166000000000E-01	-6.170000000000E-02
	Si41	Si	-9.325000000000E-02	-3.447000000000E-01	1.561000000000E-01
	Si42	Si	-1.723500000000E-01	-1.865000000000E-01	-1.561000000000E-01
	Si43	Si	9.325000000000E-02	3.447000000000E-01	-1.561000000000E-01
	Si44	Si	1.723500000000E-01	1.865000000000E-01	1.561000000000E-01
	Si45	Si	-9.000000000000E-03	3.354000000000E-01	3.612000000000E-01
	Si46	Si	1.677000000000E-01	-1.800000000000E-02	-3.612000000000E-01
	Si47	Si	9.000000000000E-03	-3.354000000000E-01	-3.612000000000E-01
	Si48	Si	-1.677000000000E-01	1.800000000000E-02	3.612000000000E-01
	Si49	Si	-3.400000000000E-02	4.150000000000E-01	-2.649000000000E-01
	Si50	Si	2.075000000000E-01	-6.800000000000E-02	2.649000000000E-01
	Si51	Si	3.400000000000E-02	-4.150000000000E-01	2.649000000000E-01
	Si52	Si	-2.075000000000E-01	6.800000000000E-02	-2.649000000000E-01
	Si53	Si	-1.018000000000E-01	-2.036000000000E-01	-5.000000000000E-01
	Si54	Si	1.018000000000E-01	2.036000000000E-01	-5.000000000000E-01
	O55	O	-3.256000000000E-01	-8.360000000000E-02	4.519000000000E-01
	O56	O	-2.648000000000E-01	2.352000000000E-01	1.286000000000E-01
	O57	O	-3.481000000000E-01	2.140000000000E-01	3.570000000000E-01
	O58	O	3.758000000000E-01	-2.484000000000E-01	0.000000000000E+00
	O59	O	-4.582000000000E-01	-3.488000000000E-01	4.519000000000E-01
	O60	O	-3.758000000000E-01	2.484000000000E-01	0.000000000000E+00
	O61	O	-3.894000000000E-01	7.580000000000E-02	-3.890000000000E-01
	O62	O	4.091000000000E-01	4.054000000000E-01	-1.492000000000E-01
	O63	O	3.256000000000E-01	8.360000000000E-02	-4.519000000000E-01
	O64	O	-2.973000000000E-01	-1.818000000000E-01	1.492000000000E-01
	O65	O	3.930000000000E-01	-3.038000000000E-01	3.570000000000E-01
	O66	O	-4.091000000000E-01	-4.054000000000E-01	1.492000000000E-01
	O67	O	-4.742000000000E-01	4.490000000000E-01	3.179000000000E-01
	O68	O	2.973000000000E-01	1.818000000000E-01	-1.492000000000E-01
	O69	O	4.434000000000E-01	3.234000000000E-01	1.917000000000E-01
	O70	O	3.317000000000E-01	3.366000000000E-01	7.530000000000E-02
	O71	O	-2.755000000000E-01	5.160000000000E-02	-3.179000000000E-01
	O72	O	-3.317000000000E-01	-3.366000000000E-01	-7.530000000000E-02
	O73	O	4.621000000000E-01	-2.212000000000E-01	-3.890000000000E-01
	Si74	Si	-3.917000000000E-01	-3.988000000000E-01	-6.170000000000E-02
	O75	O	4.742000000000E-01	-4.490000000000E-01	-3.179000000000E-01
	Si76	Si	3.006000000000E-01	2.166000000000E-01	6.170000000000E-02
	O77	O	-3.383000000000E-01	-1.132000000000E-01	-1.917000000000E-01
	Si78	Si	3.917000000000E-01	3.988000000000E-01	6.170000000000E-02
	O79	O	2.755000000000E-01	-5.160000000000E-02	3.179000000000E-01
	Si80	Si	-3.006000000000E-01	-2.166000000000E-01	-6.170000000000E-02
	O81	O	-3.930000000000E-01	3.038000000000E-01	-3.570000000000E-01
	Si82	Si	4.067500000000E-01	-3.447000000000E-01	1.561000000000E-01
	O83	O	4.767000000000E-01	-3.556000000000E-01	1.408000000000E-01
	Si84	Si	3.276500000000E-01	-1.865000000000E-01	-1.561000000000E-01
	O85	O	-4.434000000000E-01	-3.234000000000E-01	-1.917000000000E-01
	Si86	Si	-4.067500000000E-01	3.447000000000E-01	-1.561000000000E-01
	O87	O	3.222000000000E-01	-4.660000000000E-02	-1.408000000000E-01
	Si88	Si	-3.276500000000E-01	1.865000000000E-01	1.561000000000E-01
	O89	O	3.894000000000E-01	-7.580000000000E-02	3.890000000000E-01
	Si90	Si	4.910000000000E-01	3.354000000000E-01	3.612000000000E-01
	O91	O	-4.767000000000E-01	3.556000000000E-01	-1.408000000000E-01
	Si92	Si	-3.323000000000E-01	-1.800000000000E-02	-3.612000000000E-01
	O93	O	3.383000000000E-01	1.132000000000E-01	1.917000000000E-01
	Si94	Si	-4.910000000000E-01	-3.354000000000E-01	-3.612000000000E-01
	O95	O	-3.222000000000E-01	4.660000000000E-02	1.408000000000E-01
	Si96	Si	3.323000000000E-01	1.800000000000E-02	3.612000000000E-01
	O97	O	3.481000000000E-01	-2.140000000000E-01	-3.570000000000E-01
	Si98	Si	4.660000000000E-01	4.150000000000E-01	-2.649000000000E-01
	O99	O	3.824000000000E-01	-4.704000000000E-01	1.286000000000E-01
	Si100	Si	-2.925000000000E-01	-6.800000000000E-02	2.649000000000E-01
	O101	O	4.582000000000E-01	3.488000000000E-01	-4.519000000000E-01
	Si102	Si	-4.660000000000E-01	-4.150000000000E-01	2.649000000000E-01
	O103	O	2.648000000000E-01	-2.352000000000E-01	-1.286000000000E-01
	Si104	Si	2.925000000000E-01	6.800000000000E-02	-2.649000000000E-01
	O105	O	-4.621000000000E-01	2.212000000000E-01	3.890000000000E-01
	Si106	Si	3.982000000000E-01	-2.036000000000E-01	-5.000000000000E-01
	O107	O	-3.824000000000E-01	4.704000000000E-01	-1.286000000000E-01
	Si108	Si	-3.982000000000E-01	2.036000000000E-01	-5.000000000000E-01


data_ CHA
_chemical_name_common		'CHA'
_cell_length_a		18.60801696
_cell_length_b		18.60801696
_cell_length_c		9.30400848
_cell_angle_alpha		94.597246
_cell_angle_beta		94.597246
_cell_angle_gamma		94.597246
_space group_name_H-M_alt		'P 1'
_space_group_IT_number		1

loop_
	_atom_site_label
	_atom_site_type_symbol
	_atom_site_fract_x
	_atom_site_fract_y
	_atom_site_fract_z
	O1	O	1.235000000000E-02	1.593500000000E-01	2.470000000000E-02
	O2	O	1.235000000000E-02	1.235000000000E-02	3.187000000000E-01
	O3	O	1.593500000000E-01	1.235000000000E-02	2.470000000000E-02
	O4	O	-1.593500000000E-01	-1.235000000000E-02	-2.470000000000E-02
	O5	O	-1.235000000000E-02	-1.235000000000E-02	-3.187000000000E-01
	O6	O	-1.235000000000E-02	-1.593500000000E-01	-2.470000000000E-02
	O7	O	-7.170000000000E-02	7.170000000000E-02	-5.000000000000E-01
	O8	O	2.500000000000E-01	-7.170000000000E-02	1.434000000000E-01
	O9	O	7.170000000000E-02	2.500000000000E-01	-1.434000000000E-01
	O10	O	7.170000000000E-02	-7.170000000000E-02	5.000000000000E-01
	O11	O	2.500000000000E-01	7.170000000000E-02	-1.434000000000E-01
	O12	O	-7.170000000000E-02	2.500000000000E-01	1.434000000000E-01
	O13	O	1.258750000000E-01	-5.450000000000E-02	2.517500000000E-01
	O14	O	1.258750000000E-01	1.258750000000E-01	-1.090000000000E-01
	O15	O	-5.450000000000E-02	1.258750000000E-01	2.517500000000E-01
	O16	O	5.450000000000E-02	-1.258750000000E-01	-2.517500000000E-01
	O17	O	-1.258750000000E-01	-1.258750000000E-01	1.090000000000E-01
	O18	O	-1.258750000000E-01	5.450000000000E-02	-2.517500000000E-01
	O19	O	1.288500000000E-01	-1.288500000000E-01	-3.009929164800E-17
	O20	O	0.000000000000E+00	1.288500000000E-01	-2.577000000000E-01
	O21	O	-1.288500000000E-01	-1.387778780781E-17	2.577000000000E-01
	O22	O	-1.288500000000E-01	1.288500000000E-01	-2.288025138780E-17
	O23	O	0.000000000000E+00	-1.288500000000E-01	2.577000000000E-01
	O24	O	1.288500000000E-01	1.387778780781E-17	-2.577000000000E-01
	Si25	Si	5.240000000000E-02	1.659000000000E-01	-1.213000000000E-01
	Si26	Si	-6.065000000000E-02	5.240000000000E-02	3.318000000000E-01
	Si27	Si	1.659000000000E-01	-6.065000000000E-02	1.048000000000E-01
	Si28	Si	-1.659000000000E-01	-5.240000000000E-02	1.213000000000E-01
	Si29	Si	-5.240000000000E-02	6.065000000000E-02	-3.318000000000E-01
	Si30	Si	6.065000000000E-02	-1.659000000000E-01	-1.048000000000E-01
	Si31	Si	-5.240000000000E-02	-1.659000000000E-01	1.213000000000E-01
	Si32	Si	6.065000000000E-02	-5.240000000000E-02	-3.318000000000E-01
	Si33	Si	-1.659000000000E-01	6.065000000000E-02	-1.048000000000E-01
	Si34	Si	1.659000000000E-01	5.240000000000E-02	-1.213000000000E-01
	Si35	Si	5.240000000000E-02	-6.065000000000E-02	3.318000000000E-01
	Si36	Si	-6.065000000000E-02	1.659000000000E-01	1.048000000000E-01
	O37	O	1.593500000000E-01	-4.876500000000E-01	2.470000000000E-02
	O38	O	7.170000000000E-02	4.283000000000E-01	-5.000000000000E-01
	O39	O	-4.283000000000E-01	-7.170000000000E-02	-5.000000000000E-01
	O40	O	-4.283000000000E-01	4.283000000000E-01	5.000000000000E-01
	O41	O	-3.406500000000E-01	1.235000000000E-02	2.470000000000E-02
	O42	O	2.500000000000E-01	-4.283000000000E-01	-1.434000000000E-01
	O43	O	-2.500000000000E-01	7.170000000000E-02	-1.434000000000E-01
	O44	O	-2.500000000000E-01	-4.283000000000E-01	-1.434000000000E-01
	O45	O	-3.406500000000E-01	-4.876500000000E-01	2.470000000000E-02
	O46	O	-7.170000000000E-02	-2.500000000000E-01	1.434000000000E-01
	O47	O	4.283000000000E-01	2.500000000000E-01	1.434000000000E-01
	O48	O	4.283000000000E-01	-2.500000000000E-01	1.434000000000E-01
	O49	O	-4.876500000000E-01	-3.406500000000E-01	2.470000000000E-02
	O50	O	1.258750000000E-01	4.455000000000E-01	2.517500000000E-01
	O51	O	-3.741250000000E-01	-5.450000000000E-02	2.517500000000E-01
	O52	O	-3.741250000000E-01	4.455000000000E-01	2.517500000000E-01
	O53	O	-1.593500000000E-01	4.876500000000E-01	-2.470000000000E-02
	O54	O	1.258750000000E-01	-3.741250000000E-01	-1.090000000000E-01
	O55	O	-3.741250000000E-01	1.258750000000E-01	-1.090000000000E-01
	O56	O	-3.741250000000E-01	-3.741250000000E-01	-1.090000000000E-01
	O57	O	3.406500000000E-01	-1.235000000000E-02	-2.470000000000E-02
	O58	O	-5.450000000000E-02	-3.741250000000E-01	2.517500000000E-01
	O59	O	4.455000000000E-01	1.258750000000E-01	2.517500000000E-01
	O60	O	4.455000000000E-01	-3.741250000000E-01	2.517500000000E-01
	O61	O	3.406500000000E-01	4.876500000000E-01	-2.470000000000E-02
	O62	O	5.450000000000E-02	3.741250000000E-01	-2.517500000000E-01
	O63	O	-4.455000000000E-01	-1.258750000000E-01	-2.517500000000E-01
	O64	O	-4.455000000000E-01	3.741250000000E-01	-2.517500000000E-01
	O65	O	1.235000000000E-02	-3.406500000000E-01	2.470000000000E-02
	O66	O	-1.258750000000E-01	3.741250000000E-01	1.090000000000E-01
	O67	O	3.741250000000E-01	-1.258750000000E-01	1.090000000000E-01
	O68	O	3.741250000000E-01	3.741250000000E-01	1.090000000000E-01
	O69	O	-1.235000000000E-02	4.876500000000E-01	-3.187000000000E-01
	O70	O	-1.258750000000E-01	-4.455000000000E-01	-2.517500000000E-01
	O71	O	3.741250000000E-01	5.450000000000E-02	-2.517500000000E-01
	O72	O	3.741250000000E-01	-4.455000000000E-01	-2.517500000000E-01
	O73	O	4.876500000000E-01	-1.235000000000E-02	-3.187000000000E-01
	O74	O	1.288500000000E-01	3.711500000000E-01	-1.665334536938E-16
	O75	O	-3.711500000000E-01	-1.288500000000E-01	5.551115123126E-17
	O76	O	-3.711500000000E-01	3.711500000000E-01	-1.052224214144E-16
	O77	O	4.876500000000E-01	4.876500000000E-01	-3.187000000000E-01
	O78	O	-5.551115123126E-17	-3.711500000000E-01	-2.577000000000E-01
	O79	O	-5.000000000000E-01	1.288500000000E-01	-2.577000000000E-01
	O80	O	5.000000000000E-01	-3.711500000000E-01	-2.577000000000E-01
	O81	O	1.235000000000E-02	-4.876500000000E-01	3.187000000000E-01
	O82	O	-1.288500000000E-01	5.000000000000E-01	2.577000000000E-01
	O83	O	3.711500000000E-01	-2.775557561563E-17	2.577000000000E-01
	O84	O	3.711500000000E-01	-5.000000000000E-01	2.577000000000E-01
	O85	O	-1.235000000000E-02	3.406500000000E-01	-2.470000000000E-02
	O86	O	-1.288500000000E-01	-3.711500000000E-01	-1.110223024625E-16
	O87	O	3.711500000000E-01	1.288500000000E-01	-5.551115123126E-17
	O88	O	3.711500000000E-01	-3.711500000000E-01	-9.071809879565E-17
	O89	O	4.876500000000E-01	-1.593500000000E-01	-2.470000000000E-02
	O90	O	2.775557561563E-17	3.711500000000E-01	2.577000000000E-01
	O91	O	5.000000000000E-01	-1.288500000000E-01	2.577000000000E-01
	O92	O	-5.000000000000E-01	3.711500000000E-01	2.577000000000E-01
	O93	O	4.876500000000E-01	3.406500000000E-01	-2.470000000000E-02
	O94	O	1.288500000000E-01	-5.000000000000E-01	-2.577000000000E-01
	O95	O	-3.711500000000E-01	2.775557561563E-17	-2.577000000000E-01
	O96	O	-3.711500000000E-01	5.000000000000E-01	-2.577000000000E-01
	O97	O	-4.876500000000E-01	1.235000000000E-02	3.187000000000E-01
	Si98	Si	5.240000000000E-02	-3.341000000000E-01	-1.213000000000E-01
	Si99	Si	-4.476000000000E-01	1.659000000000E-01	-1.213000000000E-01
	Si100	Si	-4.476000000000E-01	-3.341000000000E-01	-1.213000000000E-01
	O101	O	-7.170000000000E-02	-4.283000000000E-01	5.000000000000E-01
	Si102	Si	-6.065000000000E-02	-4.476000000000E-01	3.318000000000E-01
	Si103	Si	4.393500000000E-01	5.240000000000E-02	3.318000000000E-01
	Si104	Si	4.393500000000E-01	-4.476000000000E-01	3.318000000000E-01
	O105	O	4.283000000000E-01	7.170000000000E-02	5.000000000000E-01
	Si106	Si	1.659000000000E-01	4.393500000000E-01	1.048000000000E-01
	Si107	Si	-3.341000000000E-01	-6.065000000000E-02	1.048000000000E-01
	Si108	Si	-3.341000000000E-01	4.393500000000E-01	1.048000000000E-01
	O109	O	4.283000000000E-01	-4.283000000000E-01	5.000000000000E-01
	Si110	Si	-1.659000000000E-01	4.476000000000E-01	1.213000000000E-01
	Si111	Si	3.341000000000E-01	-5.240000000000E-02	1.213000000000E-01
	Si112	Si	3.341000000000E-01	4.476000000000E-01	1.213000000000E-01
	O113	O	-4.876500000000E-01	-4.876500000000E-01	3.187000000000E-01
	Si114	Si	-5.240000000000E-02	-4.393500000000E-01	-3.318000000000E-01
	Si115	Si	4.476000000000E-01	6.065000000000E-02	-3.318000000000E-01
	Si116	Si	4.476000000000E-01	-4.393500000000E-01	-3.318000000000E-01
	O117	O	2.500000000000E-01	4.283000000000E-01	1.434000000000E-01
	Si118	Si	6.065000000000E-02	3.341000000000E-01	-1.048000000000E-01
	Si119	Si	-4.393500000000E-01	-1.659000000000E-01	-1.048000000000E-01
	Si120	Si	-4.393500000000E-01	3.341000000000E-01	-1.048000000000E-01
	O121	O	-2.500000000000E-01	-7.170000000000E-02	1.434000000000E-01
	Si122	Si	-5.240000000000E-02	3.341000000000E-01	1.213000000000E-01
	Si123	Si	4.476000000000E-01	-1.659000000000E-01	1.213000000000E-01
	Si124	Si	4.476000000000E-01	3.341000000000E-01	1.213000000000E-01
	O125	O	-2.500000000000E-01	4.283000000000E-01	1.434000000000E-01
	Si126	Si	6.065000000000E-02	4.476000000000E-01	-3.318000000000E-01
	Si127	Si	-4.393500000000E-01	-5.240000000000E-02	-3.318000000000E-01
	Si128	Si	-4.393500000000E-01	4.476000000000E-01	-3.318000000000E-01
	O129	O	-4.876500000000E-01	1.593500000000E-01	2.470000000000E-02
	Si130	Si	-1.659000000000E-01	-4.393500000000E-01	-1.048000000000E-01
	Si131	Si	3.341000000000E-01	6.065000000000E-02	-1.048000000000E-01
	Si132	Si	3.341000000000E-01	-4.393500000000E-01	-1.048000000000E-01
	O133	O	7.170000000000E-02	-2.500000000000E-01	-1.434000000000E-01
	Si134	Si	1.659000000000E-01	-4.476000000000E-01	-1.213000000000E-01
	Si135	Si	-3.341000000000E-01	5.240000000000E-02	-1.213000000000E-01
	Si136	Si	-3.341000000000E-01	-4.476000000000E-01	-1.213000000000E-01
	O137	O	-4.283000000000E-01	2.500000000000E-01	-1.434000000000E-01
	Si138	Si	5.240000000000E-02	4.393500000000E-01	3.318000000000E-01
	Si139	Si	-4.476000000000E-01	-6.065000000000E-02	3.318000000000E-01
	Si140	Si	-4.476000000000E-01	4.393500000000E-01	3.318000000000E-01
	O141	O	-4.283000000000E-01	-2.500000000000E-01	-1.434000000000E-01
	Si142	Si	-6.065000000000E-02	-3.341000000000E-01	1.048000000000E-01
	Si143	Si	4.393500000000E-01	1.659000000000E-01	1.048000000000E-01
	Si144	Si	4.393500000000E-01	-3.341000000000E-01	1.048000000000E-01


data_ CON
_chemical_name_common		'CON'
_cell_length_a		13.16625407
_cell_length_b		13.16625407
_cell_length_c		12.55300000
_cell_angle_alpha		107.576567
_cell_angle_beta		72.423433
_cell_angle_gamma		118.958369
_space group_name_H-M_alt		'P 1'
_space_group_IT_number		1

loop_
	_atom_site_label
	_atom_site_type_symbol
	_atom_site_fract_x
	_atom_site_fract_y
	_atom_site_fract_z
	O1	O	1.506000000000E-01	1.506000000000E-01	-5.000000000000E-01
	O2	O	-1.506000000000E-01	-1.506000000000E-01	-5.000000000000E-01
	O3	O	7.960000000000E-02	-7.960000000000E-02	4.485000000000E-01
	O4	O	-7.960000000000E-02	7.960000000000E-02	-4.485000000000E-01
	O5	O	3.014000000000E-01	6.220000000000E-02	3.823000000000E-01
	O6	O	6.220000000000E-02	3.014000000000E-01	-3.823000000000E-01
	O7	O	-3.014000000000E-01	-6.220000000000E-02	-3.823000000000E-01
	O8	O	-6.220000000000E-02	-3.014000000000E-01	3.823000000000E-01
	O9	O	2.187000000000E-01	4.950000000000E-02	-4.016000000000E-01
	O10	O	4.950000000000E-02	2.187000000000E-01	4.016000000000E-01
	O11	O	-2.187000000000E-01	-4.950000000000E-02	4.016000000000E-01
	O12	O	-4.950000000000E-02	-2.187000000000E-01	-4.016000000000E-01
	O13	O	3.511000000000E-01	-9.270000000000E-02	2.129000000000E-01
	O14	O	-9.270000000000E-02	3.511000000000E-01	-2.129000000000E-01
	O15	O	-3.511000000000E-01	9.270000000000E-02	-2.129000000000E-01
	O16	O	9.270000000000E-02	-3.511000000000E-01	2.129000000000E-01
	O17	O	4.944000000000E-01	1.334000000000E-01	2.277000000000E-01
	O18	O	1.334000000000E-01	4.944000000000E-01	-2.277000000000E-01
	O19	O	-4.944000000000E-01	-1.334000000000E-01	-2.277000000000E-01
	O20	O	-1.334000000000E-01	-4.944000000000E-01	2.277000000000E-01
	O21	O	2.867000000000E-01	5.130000000000E-02	1.745000000000E-01
	O22	O	5.130000000000E-02	2.867000000000E-01	-1.745000000000E-01
	O23	O	-2.867000000000E-01	-5.130000000000E-02	-1.745000000000E-01
	O24	O	-5.130000000000E-02	-2.867000000000E-01	1.745000000000E-01
	O25	O	3.044000000000E-01	6.900000000000E-02	-2.285000000000E-01
	O26	O	6.900000000000E-02	3.044000000000E-01	2.285000000000E-01
	O27	O	-3.044000000000E-01	-6.900000000000E-02	2.285000000000E-01
	O28	O	-6.900000000000E-02	-3.044000000000E-01	-2.285000000000E-01
	O29	O	1.390000000000E-01	1.386000000000E-01	-1.949000000000E-01
	O30	O	1.386000000000E-01	1.390000000000E-01	1.949000000000E-01
	O31	O	-1.390000000000E-01	-1.386000000000E-01	1.949000000000E-01
	O32	O	-1.386000000000E-01	-1.390000000000E-01	-1.949000000000E-01
	O33	O	8.780000000000E-02	-8.780000000000E-02	-2.505000000000E-01
	O34	O	-8.780000000000E-02	8.780000000000E-02	2.505000000000E-01
	O35	O	3.070000000000E-01	-3.070000000000E-01	9.410000000000E-02
	O36	O	-3.070000000000E-01	3.070000000000E-01	-9.410000000000E-02
	O37	O	4.139000000000E-01	-1.251000000000E-01	-9.700000000000E-03
	O38	O	-1.251000000000E-01	4.139000000000E-01	9.700000000000E-03
	O39	O	-4.139000000000E-01	1.251000000000E-01	9.700000000000E-03
	O40	O	1.251000000000E-01	-4.139000000000E-01	-9.700000000000E-03
	O41	O	-4.744000000000E-01	-1.530000000000E-01	1.132000000000E-01
	O42	O	-1.530000000000E-01	-4.744000000000E-01	-1.132000000000E-01
	O43	O	4.744000000000E-01	1.530000000000E-01	-1.132000000000E-01
	O44	O	1.530000000000E-01	4.744000000000E-01	1.132000000000E-01
	O45	O	2.928000000000E-01	-2.928000000000E-01	-1.610000000000E-01
	O46	O	-2.928000000000E-01	2.928000000000E-01	1.610000000000E-01
	O47	O	3.296000000000E-01	-7.360000000000E-02	-1.408000000000E-01
	O48	O	-7.360000000000E-02	3.296000000000E-01	1.408000000000E-01
	O49	O	-3.296000000000E-01	7.360000000000E-02	1.408000000000E-01
	O50	O	7.360000000000E-02	-3.296000000000E-01	-1.408000000000E-01
	O51	O	8.500000000000E-02	-8.500000000000E-02	1.035000000000E-01
	O52	O	-8.500000000000E-02	8.500000000000E-02	-1.035000000000E-01
	O53	O	2.528000000000E-01	8.140000000000E-02	-7.200000000000E-03
	O54	O	8.140000000000E-02	2.528000000000E-01	7.200000000000E-03
	O55	O	-2.528000000000E-01	-8.140000000000E-02	7.200000000000E-03
	O56	O	-8.140000000000E-02	-2.528000000000E-01	-7.200000000000E-03
	Si57	Si	1.874000000000E-01	4.560000000000E-02	4.825000000000E-01
	Si58	Si	4.560000000000E-02	1.874000000000E-01	-4.825000000000E-01
	Si59	Si	-1.874000000000E-01	-4.560000000000E-02	-4.825000000000E-01
	Si60	Si	-4.560000000000E-02	-1.874000000000E-01	4.825000000000E-01
	Si61	Si	3.581000000000E-01	3.850000000000E-02	2.496000000000E-01
	Si62	Si	3.850000000000E-02	3.581000000000E-01	-2.496000000000E-01
	Si63	Si	-3.581000000000E-01	-3.850000000000E-02	-2.496000000000E-01
	Si64	Si	-3.850000000000E-02	-3.581000000000E-01	2.496000000000E-01
	Si65	Si	1.874000000000E-01	4.240000000000E-02	-2.690000000000E-01
	Si66	Si	4.240000000000E-02	1.874000000000E-01	2.690000000000E-01
	Si67	Si	-1.874000000000E-01	-4.240000000000E-02	2.690000000000E-01
	Si68	Si	-4.240000000000E-02	-1.874000000000E-01	-2.690000000000E-01
	Si69	Si	3.993000000000E-01	-1.697000000000E-01	1.026000000000E-01
	Si70	Si	-1.697000000000E-01	3.993000000000E-01	-1.026000000000E-01
	Si71	Si	-3.993000000000E-01	1.697000000000E-01	-1.026000000000E-01
	Si72	Si	1.697000000000E-01	-3.993000000000E-01	1.026000000000E-01
	Si73	Si	3.854000000000E-01	-1.562000000000E-01	-1.347000000000E-01
	Si74	Si	-1.562000000000E-01	3.854000000000E-01	1.347000000000E-01
	Si75	Si	-3.854000000000E-01	1.562000000000E-01	1.347000000000E-01
	Si76	Si	1.562000000000E-01	-3.854000000000E-01	-1.347000000000E-01
	Si77	Si	1.903000000000E-01	4.650000000000E-02	1.166000000000E-01
	Si78	Si	4.650000000000E-02	1.903000000000E-01	-1.166000000000E-01
	Si79	Si	-1.903000000000E-01	-4.650000000000E-02	-1.166000000000E-01
	Si80	Si	-4.650000000000E-02	-1.903000000000E-01	1.166000000000E-01
	Si81	Si	3.405000000000E-01	5.750000000000E-02	-1.224000000000E-01
	Si82	Si	5.750000000000E-02	3.405000000000E-01	1.224000000000E-01
	Si83	Si	-3.405000000000E-01	-5.750000000000E-02	1.224000000000E-01
	Si84	Si	-5.750000000000E-02	-3.405000000000E-01	-1.224000000000E-01


data_ CSV
_chemical_name_common		'CSV'
_cell_length_a		13.02702000
_cell_length_b		11.18216000
_cell_length_c		9.21893000
_cell_angle_alpha		92.350000
_cell_angle_beta		107.300000
_cell_angle_gamma		104.500000
_space group_name_H-M_alt		'P 1'
_space_group_IT_number		1

loop_
	_atom_site_label
	_atom_site_type_symbol
	_atom_site_fract_x
	_atom_site_fract_y
	_atom_site_fract_z
	Si1	Si	2.671700000000E-01	4.967900000000E-01	2.302600000000E-01
	Si2	Si	-2.671700000000E-01	-4.967900000000E-01	-2.302600000000E-01
	Si3	Si	2.727400000000E-01	-4.497900000000E-01	-9.466000000000E-02
	Si4	Si	-2.727400000000E-01	4.497900000000E-01	9.466000000000E-02
	Si5	Si	3.236600000000E-01	3.916000000000E-01	-3.232600000000E-01
	Si6	Si	-3.236600000000E-01	-3.916000000000E-01	3.232600000000E-01
	Si7	Si	1.172200000000E-01	4.264800000000E-01	4.190200000000E-01
	Si8	Si	-1.172200000000E-01	-4.264800000000E-01	-4.190200000000E-01
	Si9	Si	4.073400000000E-01	1.504500000000E-01	-2.617600000000E-01
	Si10	Si	-4.073400000000E-01	-1.504500000000E-01	2.617600000000E-01
	Si11	Si	3.344000000000E-01	-1.262900000000E-01	-3.470700000000E-01
	Si12	Si	-3.344000000000E-01	1.262900000000E-01	3.470700000000E-01
	Si13	Si	1.289800000000E-01	-3.530200000000E-01	-3.694400000000E-01
	Si14	Si	-1.289800000000E-01	3.530200000000E-01	3.694400000000E-01
	Si15	Si	4.760900000000E-01	3.892300000000E-01	3.159700000000E-01
	Si16	Si	-4.760900000000E-01	-3.892300000000E-01	-3.159700000000E-01
	Si17	Si	4.721000000000E-01	-2.319200000000E-01	-7.815000000000E-02
	Si18	Si	-4.721000000000E-01	2.319200000000E-01	7.815000000000E-02
	Si19	Si	4.185100000000E-01	-2.498200000000E-01	4.219700000000E-01
	Si20	Si	-4.185100000000E-01	2.498200000000E-01	-4.219700000000E-01
	O21	O	2.352200000000E-01	-4.992700000000E-01	4.830000000000E-02
	O22	O	-2.352200000000E-01	4.992700000000E-01	-4.830000000000E-02
	O23	O	3.581500000000E-01	4.204300000000E-01	2.885400000000E-01
	O24	O	-3.581500000000E-01	-4.204300000000E-01	-2.885400000000E-01
	O25	O	3.167900000000E-01	-3.638700000000E-01	3.188400000000E-01
	O26	O	-3.167900000000E-01	3.638700000000E-01	-3.188400000000E-01
	O27	O	1.548100000000E-01	4.294200000000E-01	2.675500000000E-01
	O28	O	-1.548100000000E-01	-4.294200000000E-01	-2.675500000000E-01
	O29	O	3.685100000000E-01	-3.195600000000E-01	-3.738000000000E-02
	O30	O	-3.685100000000E-01	3.195600000000E-01	3.738000000000E-02
	O31	O	1.687900000000E-01	-4.262000000000E-01	-2.254600000000E-01
	O32	O	-1.687900000000E-01	4.262000000000E-01	2.254600000000E-01
	O33	O	3.204600000000E-01	4.482900000000E-01	-1.617300000000E-01
	O34	O	-3.204600000000E-01	-4.482900000000E-01	1.617300000000E-01
	O35	O	3.440900000000E-01	2.557100000000E-01	-3.132300000000E-01
	O36	O	-3.440900000000E-01	-2.557100000000E-01	3.132300000000E-01
	O37	O	4.232000000000E-01	4.842700000000E-01	-3.670200000000E-01
	O38	O	-4.232000000000E-01	-4.842700000000E-01	3.670200000000E-01
	O39	O	2.044600000000E-01	3.778200000000E-01	-4.503000000000E-01
	O40	O	-2.044600000000E-01	-3.778200000000E-01	4.503000000000E-01
	O41	O	1.196500000000E-01	-4.346500000000E-01	4.767500000000E-01
	O42	O	-1.196500000000E-01	4.346500000000E-01	-4.767500000000E-01
	O43	O	-7.460000000000E-03	3.363300000000E-01	3.818200000000E-01
	O44	O	7.460000000000E-03	-3.363300000000E-01	-3.818200000000E-01
	O45	O	3.261400000000E-01	1.513000000000E-02	-3.417900000000E-01
	O46	O	-3.261400000000E-01	-1.513000000000E-02	3.417900000000E-01
	O47	O	-4.819800000000E-01	1.760400000000E-01	-3.129900000000E-01
	O48	O	4.819800000000E-01	-1.760400000000E-01	3.129900000000E-01
	O49	O	4.388700000000E-01	1.536600000000E-01	-7.868000000000E-02
	O50	O	-4.388700000000E-01	-1.536600000000E-01	7.868000000000E-02
	O51	O	4.293700000000E-01	-1.378100000000E-01	-1.940600000000E-01
	O52	O	-4.293700000000E-01	1.378100000000E-01	1.940600000000E-01
	O53	O	2.166000000000E-01	-2.190600000000E-01	-3.521800000000E-01
	O54	O	-2.166000000000E-01	2.190600000000E-01	3.521800000000E-01
	O55	O	3.683100000000E-01	-1.597700000000E-01	-4.949000000000E-01
	O56	O	-3.683100000000E-01	1.597700000000E-01	4.949000000000E-01
	O57	O	4.733000000000E-01	3.183600000000E-01	1.586600000000E-01
	O58	O	-4.733000000000E-01	-3.183600000000E-01	-1.586600000000E-01
	O59	O	4.945900000000E-01	3.010900000000E-01	4.497800000000E-01
	O60	O	-4.945900000000E-01	-3.010900000000E-01	-4.497800000000E-01


data_ DAC
_chemical_name_common		'DAC'
_cell_length_a		10.02341309
_cell_length_b		10.02341309
_cell_length_c		20.75400000
_cell_angle_alpha		72.519601
_cell_angle_beta		107.480399
_cell_angle_gamma		135.800632
_space group_name_H-M_alt		'P 1'
_space_group_IT_number		1

loop_
	_atom_site_label
	_atom_site_type_symbol
	_atom_site_fract_x
	_atom_site_fract_y
	_atom_site_fract_z
	O1	O	3.125000000000E-01	3.610000000000E-02	-1.117500000000E-01
	O2	O	3.610000000000E-02	3.125000000000E-01	1.117500000000E-01
	O3	O	-3.125000000000E-01	-3.610000000000E-02	1.117500000000E-01
	O4	O	-3.610000000000E-02	-3.125000000000E-01	-1.117500000000E-01
	O5	O	5.000000000000E-01	6.516042065405E-18	0.000000000000E+00
	O6	O	3.086809911679E-17	-5.000000000000E-01	0.000000000000E+00
	O7	O	-4.767000000000E-01	-2.490000000000E-02	-1.179000000000E-01
	O8	O	-2.490000000000E-02	-4.767000000000E-01	1.179000000000E-01
	O9	O	4.767000000000E-01	2.490000000000E-02	1.179000000000E-01
	O10	O	2.490000000000E-02	4.767000000000E-01	-1.179000000000E-01
	O11	O	-3.095000000000E-01	3.095000000000E-01	-8.980000000000E-02
	O12	O	3.095000000000E-01	-3.095000000000E-01	8.980000000000E-02
	O13	O	-3.338000000000E-01	3.338000000000E-01	1.732500000000E-01
	O14	O	3.338000000000E-01	-3.338000000000E-01	-1.732500000000E-01
	O15	O	5.000000000000E-01	9.140153457993E-17	2.500000000000E-01
	O16	O	-3.528610973316E-17	5.000000000000E-01	2.500000000000E-01
	O17	O	2.885000000000E-01	5.990000000000E-02	1.650000000000E-01
	O18	O	5.990000000000E-02	2.885000000000E-01	-1.650000000000E-01
	O19	O	-2.885000000000E-01	-5.990000000000E-02	-1.650000000000E-01
	O20	O	-5.990000000000E-02	-2.885000000000E-01	1.650000000000E-01
	O21	O	9.600000000000E-03	-9.600000000000E-03	-1.611500000000E-01
	O22	O	-9.600000000000E-03	9.600000000000E-03	1.611500000000E-01
	O23	O	1.091000000000E-01	-1.091000000000E-01	2.730000000000E-01
	O24	O	-1.091000000000E-01	1.091000000000E-01	-2.730000000000E-01
	Si25	Si	-4.932000000000E-01	8.020000000000E-02	-7.980000000000E-02
	Si26	Si	8.020000000000E-02	-4.932000000000E-01	7.980000000000E-02
	Si27	Si	4.932000000000E-01	-8.020000000000E-02	7.980000000000E-02
	Si28	Si	-8.020000000000E-02	4.932000000000E-01	-7.980000000000E-02
	Si29	Si	4.832000000000E-01	1.044000000000E-01	1.766500000000E-01
	Si30	Si	1.044000000000E-01	4.832000000000E-01	-1.766500000000E-01
	Si31	Si	-4.832000000000E-01	-1.044000000000E-01	-1.766500000000E-01
	Si32	Si	-1.044000000000E-01	-4.832000000000E-01	1.766500000000E-01
	Si33	Si	9.870000000000E-02	-9.870000000000E-02	-1.530000000000E-01
	Si34	Si	-9.870000000000E-02	9.870000000000E-02	1.530000000000E-01
	Si35	Si	8.190000000000E-02	-8.190000000000E-02	1.910500000000E-01
	Si36	Si	-8.190000000000E-02	8.190000000000E-02	-1.910500000000E-01
	O37	O	5.000000000000E-01	9.337116184982E-18	5.000000000000E-01
	O38	O	-2.885000000000E-01	-5.990000000000E-02	3.350000000000E-01
	O39	O	2.490000000000E-02	4.767000000000E-01	3.821000000000E-01
	O40	O	-5.990000000000E-02	-2.885000000000E-01	-3.350000000000E-01
	O41	O	-3.125000000000E-01	-3.610000000000E-02	-3.882500000000E-01
	O42	O	9.600000000000E-03	-9.600000000000E-03	3.388500000000E-01
	O43	O	-3.095000000000E-01	3.095000000000E-01	4.102000000000E-01
	O44	O	-9.600000000000E-03	9.600000000000E-03	-3.388500000000E-01
	O45	O	1.306493091242E-16	5.000000000000E-01	5.000000000000E-01
	O46	O	1.091000000000E-01	-1.091000000000E-01	-2.270000000000E-01
	O47	O	3.095000000000E-01	-3.095000000000E-01	-4.102000000000E-01
	O48	O	-1.091000000000E-01	1.091000000000E-01	2.270000000000E-01
	O49	O	3.610000000000E-02	3.125000000000E-01	-3.882500000000E-01
	Si50	Si	-4.932000000000E-01	8.020000000000E-02	4.202000000000E-01
	O51	O	-3.338000000000E-01	3.338000000000E-01	-3.267500000000E-01
	Si52	Si	8.020000000000E-02	-4.932000000000E-01	-4.202000000000E-01
	O53	O	-4.767000000000E-01	-2.490000000000E-02	3.821000000000E-01
	Si54	Si	4.932000000000E-01	-8.020000000000E-02	-4.202000000000E-01
	O55	O	3.338000000000E-01	-3.338000000000E-01	3.267500000000E-01
	Si56	Si	-8.020000000000E-02	4.932000000000E-01	4.202000000000E-01
	O57	O	-3.610000000000E-02	-3.125000000000E-01	3.882500000000E-01
	Si58	Si	4.832000000000E-01	1.044000000000E-01	-3.233500000000E-01
	O59	O	5.000000000000E-01	1.688101841280E-16	-2.500000000000E-01
	Si60	Si	1.044000000000E-01	4.832000000000E-01	3.233500000000E-01
	O61	O	-2.490000000000E-02	-4.767000000000E-01	-3.821000000000E-01
	Si62	Si	-4.832000000000E-01	-1.044000000000E-01	3.233500000000E-01
	O63	O	-2.881004049738E-18	5.000000000000E-01	-2.500000000000E-01
	Si64	Si	-1.044000000000E-01	-4.832000000000E-01	-3.233500000000E-01
	O65	O	3.125000000000E-01	3.610000000000E-02	3.882500000000E-01
	Si66	Si	9.870000000000E-02	-9.870000000000E-02	3.470000000000E-01
	O67	O	2.885000000000E-01	5.990000000000E-02	-3.350000000000E-01
	Si68	Si	-9.870000000000E-02	9.870000000000E-02	-3.470000000000E-01
	O69	O	4.767000000000E-01	2.490000000000E-02	-3.821000000000E-01
	Si70	Si	8.190000000000E-02	-8.190000000000E-02	-3.089500000000E-01
	O71	O	5.990000000000E-02	2.885000000000E-01	3.350000000000E-01
	Si72	Si	-8.190000000000E-02	8.190000000000E-02	3.089500000000E-01


data_ DOH
_chemical_name_common		'DOH'
_cell_length_a		14.19000000
_cell_length_b		14.19000000
_cell_length_c		11.49900000
_cell_angle_alpha		90.000000
_cell_angle_beta		90.000000
_cell_angle_gamma		120.000000
_space group_name_H-M_alt		'P 1'
_space_group_IT_number		1

loop_
	_atom_site_label
	_atom_site_type_symbol
	_atom_site_fract_x
	_atom_site_fract_y
	_atom_site_fract_z
	O1	O	3.952000000000E-01	2.893000000000E-01	3.035000000000E-01
	O2	O	-3.952000000000E-01	-2.893000000000E-01	3.035000000000E-01
	O3	O	-2.893000000000E-01	1.059000000000E-01	3.035000000000E-01
	O4	O	-1.059000000000E-01	-3.952000000000E-01	3.035000000000E-01
	O5	O	1.059000000000E-01	3.952000000000E-01	3.035000000000E-01
	O6	O	2.893000000000E-01	-1.059000000000E-01	3.035000000000E-01
	O7	O	1.059000000000E-01	-2.893000000000E-01	-3.035000000000E-01
	O8	O	-3.952000000000E-01	-1.059000000000E-01	-3.035000000000E-01
	O9	O	2.893000000000E-01	3.952000000000E-01	-3.035000000000E-01
	O10	O	-2.893000000000E-01	-3.952000000000E-01	-3.035000000000E-01
	O11	O	3.952000000000E-01	1.059000000000E-01	-3.035000000000E-01
	O12	O	-1.059000000000E-01	2.893000000000E-01	-3.035000000000E-01
	O13	O	-3.952000000000E-01	-2.893000000000E-01	-3.035000000000E-01
	O14	O	3.952000000000E-01	2.893000000000E-01	-3.035000000000E-01
	O15	O	2.893000000000E-01	-1.059000000000E-01	-3.035000000000E-01
	O16	O	1.059000000000E-01	3.952000000000E-01	-3.035000000000E-01
	O17	O	-1.059000000000E-01	-3.952000000000E-01	-3.035000000000E-01
	O18	O	-2.893000000000E-01	1.059000000000E-01	-3.035000000000E-01
	O19	O	-1.059000000000E-01	2.893000000000E-01	3.035000000000E-01
	O20	O	3.952000000000E-01	1.059000000000E-01	3.035000000000E-01
	O21	O	-2.893000000000E-01	-3.952000000000E-01	3.035000000000E-01
	O22	O	2.893000000000E-01	3.952000000000E-01	3.035000000000E-01
	O23	O	-3.952000000000E-01	-1.059000000000E-01	3.035000000000E-01
	O24	O	1.059000000000E-01	-2.893000000000E-01	3.035000000000E-01
	O25	O	-1.686000000000E-01	-3.372000000000E-01	1.140000000000E-01
	O26	O	1.686000000000E-01	3.372000000000E-01	1.140000000000E-01
	O27	O	3.372000000000E-01	1.686000000000E-01	1.140000000000E-01
	O28	O	-1.686000000000E-01	1.686000000000E-01	1.140000000000E-01
	O29	O	1.686000000000E-01	-1.686000000000E-01	1.140000000000E-01
	O30	O	-3.372000000000E-01	-1.686000000000E-01	1.140000000000E-01
	O31	O	1.686000000000E-01	3.372000000000E-01	-1.140000000000E-01
	O32	O	1.686000000000E-01	-1.686000000000E-01	-1.140000000000E-01
	O33	O	-3.372000000000E-01	-1.686000000000E-01	-1.140000000000E-01
	O34	O	3.372000000000E-01	1.686000000000E-01	-1.140000000000E-01
	O35	O	-1.686000000000E-01	1.686000000000E-01	-1.140000000000E-01
	O36	O	-1.686000000000E-01	-3.372000000000E-01	-1.140000000000E-01
	O37	O	-2.713500000000E-01	4.573000000000E-01	1.849000000000E-01
	O38	O	2.713500000000E-01	-4.573000000000E-01	1.849000000000E-01
	O39	O	-4.573000000000E-01	2.713500000000E-01	1.849000000000E-01
	O40	O	-2.713500000000E-01	2.713500000000E-01	1.849000000000E-01
	O41	O	2.713500000000E-01	-2.713500000000E-01	1.849000000000E-01
	O42	O	4.573000000000E-01	-2.713500000000E-01	1.849000000000E-01
	O43	O	2.713500000000E-01	-4.573000000000E-01	-1.849000000000E-01
	O44	O	2.713500000000E-01	-2.713500000000E-01	-1.849000000000E-01
	O45	O	4.573000000000E-01	-2.713500000000E-01	-1.849000000000E-01
	O46	O	-4.573000000000E-01	2.713500000000E-01	-1.849000000000E-01
	O47	O	-2.713500000000E-01	2.713500000000E-01	-1.849000000000E-01
	O48	O	-2.713500000000E-01	4.573000000000E-01	-1.849000000000E-01
	O49	O	3.659000000000E-01	-5.551115123126E-17	5.000000000000E-01
	O50	O	-3.659000000000E-01	-5.551115123126E-17	5.000000000000E-01
	O51	O	0.000000000000E+00	3.659000000000E-01	5.000000000000E-01
	O52	O	-3.659000000000E-01	-3.659000000000E-01	5.000000000000E-01
	O53	O	3.659000000000E-01	3.659000000000E-01	5.000000000000E-01
	O54	O	0.000000000000E+00	-3.659000000000E-01	5.000000000000E-01
	O55	O	-5.000000000000E-01	2.775557561563E-17	3.414000000000E-01
	O56	O	-7.227484844289E-17	5.000000000000E-01	3.414000000000E-01
	O57	O	-5.000000000000E-01	-5.000000000000E-01	3.414000000000E-01
	O58	O	-5.000000000000E-01	-1.387778780781E-16	-3.414000000000E-01
	O59	O	-5.000000000000E-01	-5.000000000000E-01	-3.414000000000E-01
	O60	O	7.227484844289E-17	5.000000000000E-01	-3.414000000000E-01
	O61	O	1.854000000000E-01	-1.387778780781E-17	0.000000000000E+00
	O62	O	-1.854000000000E-01	0.000000000000E+00	0.000000000000E+00
	O63	O	1.806871211072E-17	1.854000000000E-01	0.000000000000E+00
	O64	O	-1.854000000000E-01	-1.854000000000E-01	0.000000000000E+00
	O65	O	1.854000000000E-01	1.854000000000E-01	0.000000000000E+00
	O66	O	-1.806871211072E-17	-1.854000000000E-01	0.000000000000E+00
	O67	O	3.333333333333E-01	-3.333333333333E-01	0.000000000000E+00
	O68	O	-3.333333333333E-01	3.333333333333E-01	0.000000000000E+00
	Si69	Si	-2.086500000000E-01	-4.173000000000E-01	2.246000000000E-01
	Si70	Si	2.086500000000E-01	4.173000000000E-01	2.246000000000E-01
	Si71	Si	4.173000000000E-01	2.086500000000E-01	2.246000000000E-01
	Si72	Si	-2.086500000000E-01	2.086500000000E-01	2.246000000000E-01
	Si73	Si	2.086500000000E-01	-2.086500000000E-01	2.246000000000E-01
	Si74	Si	-4.173000000000E-01	-2.086500000000E-01	2.246000000000E-01
	Si75	Si	2.086500000000E-01	4.173000000000E-01	-2.246000000000E-01
	Si76	Si	2.086500000000E-01	-2.086500000000E-01	-2.246000000000E-01
	Si77	Si	-4.173000000000E-01	-2.086500000000E-01	-2.246000000000E-01
	Si78	Si	4.173000000000E-01	2.086500000000E-01	-2.246000000000E-01
	Si79	Si	-2.086500000000E-01	2.086500000000E-01	-2.246000000000E-01
	Si80	Si	-2.086500000000E-01	-4.173000000000E-01	-2.246000000000E-01
	Si81	Si	3.881000000000E-01	8.326672684689E-17	3.629000000000E-01
	Si82	Si	-3.881000000000E-01	0.000000000000E+00	3.629000000000E-01
	Si83	Si	3.613742422144E-17	3.881000000000E-01	3.629000000000E-01
	Si84	Si	-3.881000000000E-01	-3.881000000000E-01	3.629000000000E-01
	Si85	Si	3.881000000000E-01	3.881000000000E-01	3.629000000000E-01
	Si86	Si	-3.613742422144E-17	-3.881000000000E-01	3.629000000000E-01
	Si87	Si	3.881000000000E-01	0.000000000000E+00	-3.629000000000E-01
	Si88	Si	-3.881000000000E-01	-3.881000000000E-01	-3.629000000000E-01
	Si89	Si	-3.613742422144E-17	3.881000000000E-01	-3.629000000000E-01
	Si90	Si	3.613742422144E-17	-3.881000000000E-01	-3.629000000000E-01
	Si91	Si	3.881000000000E-01	3.881000000000E-01	-3.629000000000E-01
	Si92	Si	-3.881000000000E-01	0.000000000000E+00	-3.629000000000E-01
	Si93	Si	-1.304500000000E-01	-2.609000000000E-01	0.000000000000E+00
	Si94	Si	1.304500000000E-01	2.609000000000E-01	0.000000000000E+00
	Si95	Si	2.609000000000E-01	1.304500000000E-01	0.000000000000E+00
	Si96	Si	-1.304500000000E-01	1.304500000000E-01	0.000000000000E+00
	Si97	Si	1.304500000000E-01	-1.304500000000E-01	0.000000000000E+00
	Si98	Si	-2.609000000000E-01	-1.304500000000E-01	0.000000000000E+00
	Si99	Si	3.333333333333E-01	-3.333333333333E-01	1.398000000000E-01
	Si100	Si	-3.333333333333E-01	3.333333333333E-01	1.398000000000E-01
	Si101	Si	-3.333333333333E-01	3.333333333333E-01	-1.398000000000E-01
	Si102	Si	3.333333333333E-01	-3.333333333333E-01	-1.398000000000E-01


data_ DON
_chemical_name_common		'DON'
_cell_length_a		15.02294349
_cell_length_b		15.02294349
_cell_length_c		8.46900000
_cell_angle_alpha		90.000000
_cell_angle_beta		90.000000
_cell_angle_gamma		77.909292
_space group_name_H-M_alt		'P 1'
_space_group_IT_number		1

loop_
	_atom_site_label
	_atom_site_type_symbol
	_atom_site_fract_x
	_atom_site_fract_y
	_atom_site_fract_z
	O1	O	-1.867000000000E-01	-1.867000000000E-01	4.506000000000E-01
	O2	O	1.867000000000E-01	1.867000000000E-01	-4.940000000000E-02
	O3	O	1.867000000000E-01	1.867000000000E-01	-4.506000000000E-01
	O4	O	-1.867000000000E-01	-1.867000000000E-01	4.940000000000E-02
	O5	O	-2.087000000000E-01	-3.479000000000E-01	-4.590000000000E-01
	O6	O	2.087000000000E-01	3.479000000000E-01	4.100000000000E-02
	O7	O	3.479000000000E-01	2.087000000000E-01	4.590000000000E-01
	O8	O	-3.479000000000E-01	-2.087000000000E-01	-4.100000000000E-02
	O9	O	2.087000000000E-01	3.479000000000E-01	4.590000000000E-01
	O10	O	-2.087000000000E-01	-3.479000000000E-01	-4.100000000000E-02
	O11	O	-3.479000000000E-01	-2.087000000000E-01	-4.590000000000E-01
	O12	O	3.479000000000E-01	2.087000000000E-01	4.100000000000E-02
	O13	O	-2.171000000000E-01	-2.171000000000E-01	-2.500000000000E-01
	O14	O	2.171000000000E-01	2.171000000000E-01	2.500000000000E-01
	O15	O	1.621000000000E-01	2.310000000000E-02	4.815000000000E-01
	O16	O	-1.621000000000E-01	-2.310000000000E-02	-1.850000000000E-02
	O17	O	-2.310000000000E-02	-1.621000000000E-01	-4.815000000000E-01
	O18	O	2.310000000000E-02	1.621000000000E-01	1.850000000000E-02
	O19	O	-1.621000000000E-01	-2.310000000000E-02	-4.815000000000E-01
	O20	O	1.621000000000E-01	2.310000000000E-02	1.850000000000E-02
	O21	O	2.310000000000E-02	1.621000000000E-01	4.815000000000E-01
	O22	O	-2.310000000000E-02	-1.621000000000E-01	-1.850000000000E-02
	O23	O	3.083000000000E-01	-1.057000000000E-01	-4.781000000000E-01
	O24	O	-3.083000000000E-01	1.057000000000E-01	2.190000000000E-02
	O25	O	1.057000000000E-01	-3.083000000000E-01	4.781000000000E-01
	O26	O	-1.057000000000E-01	3.083000000000E-01	-2.190000000000E-02
	O27	O	-3.083000000000E-01	1.057000000000E-01	4.781000000000E-01
	O28	O	3.083000000000E-01	-1.057000000000E-01	-2.190000000000E-02
	O29	O	-1.057000000000E-01	3.083000000000E-01	-4.781000000000E-01
	O30	O	1.057000000000E-01	-3.083000000000E-01	2.190000000000E-02
	O31	O	1.479000000000E-01	-1.479000000000E-01	-5.000000000000E-01
	O32	O	-1.479000000000E-01	1.479000000000E-01	-4.936290942527E-17
	O33	O	-1.479000000000E-01	1.479000000000E-01	-5.000000000000E-01
	O34	O	1.479000000000E-01	-1.479000000000E-01	0.000000000000E+00
	O35	O	2.228000000000E-01	-9.020000000000E-02	2.500000000000E-01
	O36	O	-2.228000000000E-01	9.020000000000E-02	-2.500000000000E-01
	O37	O	9.020000000000E-02	-2.228000000000E-01	-2.500000000000E-01
	O38	O	-9.020000000000E-02	2.228000000000E-01	2.500000000000E-01
	O39	O	-3.863000000000E-01	-1.543000000000E-01	2.500000000000E-01
	O40	O	3.863000000000E-01	1.543000000000E-01	-2.500000000000E-01
	O41	O	1.543000000000E-01	3.863000000000E-01	-2.500000000000E-01
	O42	O	-1.543000000000E-01	-3.863000000000E-01	2.500000000000E-01
	O43	O	-3.886000000000E-01	-3.400000000000E-02	4.761000000000E-01
	O44	O	3.886000000000E-01	3.400000000000E-02	-2.390000000000E-02
	O45	O	3.400000000000E-02	3.886000000000E-01	-4.761000000000E-01
	O46	O	-3.400000000000E-02	-3.886000000000E-01	2.390000000000E-02
	O47	O	3.886000000000E-01	3.400000000000E-02	-4.761000000000E-01
	O48	O	-3.886000000000E-01	-3.400000000000E-02	2.390000000000E-02
	O49	O	-3.400000000000E-02	-3.886000000000E-01	4.761000000000E-01
	O50	O	3.400000000000E-02	3.886000000000E-01	-2.390000000000E-02
	O51	O	4.839000000000E-01	-1.301000000000E-01	4.639000000000E-01
	O52	O	-4.839000000000E-01	1.301000000000E-01	-3.610000000000E-02
	O53	O	1.301000000000E-01	-4.839000000000E-01	-4.639000000000E-01
	O54	O	-1.301000000000E-01	4.839000000000E-01	3.610000000000E-02
	O55	O	-4.839000000000E-01	1.301000000000E-01	-4.639000000000E-01
	O56	O	4.839000000000E-01	-1.301000000000E-01	3.610000000000E-02
	O57	O	-1.301000000000E-01	4.839000000000E-01	4.639000000000E-01
	O58	O	1.301000000000E-01	-4.839000000000E-01	-3.610000000000E-02
	O59	O	4.224000000000E-01	-8.860000000000E-02	-2.500000000000E-01
	O60	O	-4.224000000000E-01	8.860000000000E-02	2.500000000000E-01
	O61	O	8.860000000000E-02	-4.224000000000E-01	2.500000000000E-01
	O62	O	-8.860000000000E-02	4.224000000000E-01	-2.500000000000E-01
	O63	O	-1.006000000000E-01	-1.006000000000E-01	2.500000000000E-01
	O64	O	1.006000000000E-01	1.006000000000E-01	-2.500000000000E-01
	Si65	Si	-4.101000000000E-01	-1.317000000000E-01	4.328000000000E-01
	Si66	Si	4.101000000000E-01	1.317000000000E-01	-6.720000000000E-02
	Si67	Si	1.317000000000E-01	4.101000000000E-01	-4.328000000000E-01
	Si68	Si	-1.317000000000E-01	-4.101000000000E-01	6.720000000000E-02
	Si69	Si	4.101000000000E-01	1.317000000000E-01	-4.328000000000E-01
	Si70	Si	-4.101000000000E-01	-1.317000000000E-01	6.720000000000E-02
	Si71	Si	-1.317000000000E-01	-4.101000000000E-01	4.328000000000E-01
	Si72	Si	1.317000000000E-01	4.101000000000E-01	-6.720000000000E-02
	Si73	Si	4.005000000000E-01	-7.250000000000E-02	-4.350000000000E-01
	Si74	Si	-4.005000000000E-01	7.250000000000E-02	6.500000000000E-02
	Si75	Si	7.250000000000E-02	-4.005000000000E-01	4.350000000000E-01
	Si76	Si	-7.250000000000E-02	4.005000000000E-01	-6.500000000000E-02
	Si77	Si	-4.005000000000E-01	7.250000000000E-02	4.350000000000E-01
	Si78	Si	4.005000000000E-01	-7.250000000000E-02	-6.500000000000E-02
	Si79	Si	-7.250000000000E-02	4.005000000000E-01	-4.350000000000E-01
	Si80	Si	7.250000000000E-02	-4.005000000000E-01	6.500000000000E-02
	Si81	Si	2.101000000000E-01	-8.010000000000E-02	4.381000000000E-01
	Si82	Si	-2.101000000000E-01	8.010000000000E-02	-6.190000000000E-02
	Si83	Si	8.010000000000E-02	-2.101000000000E-01	-4.381000000000E-01
	Si84	Si	-8.010000000000E-02	2.101000000000E-01	6.190000000000E-02
	Si85	Si	-2.101000000000E-01	8.010000000000E-02	-4.381000000000E-01
	Si86	Si	2.101000000000E-01	-8.010000000000E-02	6.190000000000E-02
	Si87	Si	-8.010000000000E-02	2.101000000000E-01	4.381000000000E-01
	Si88	Si	8.010000000000E-02	-2.101000000000E-01	-6.190000000000E-02
	Si89	Si	-2.401000000000E-01	-2.401000000000E-01	-4.293000000000E-01
	Si90	Si	2.401000000000E-01	2.401000000000E-01	7.070000000000E-02
	Si91	Si	2.401000000000E-01	2.401000000000E-01	4.293000000000E-01
	Si92	Si	-2.401000000000E-01	-2.401000000000E-01	-7.070000000000E-02
	Si93	Si	-1.180000000000E-01	-1.180000000000E-01	4.338000000000E-01
	Si94	Si	1.180000000000E-01	1.180000000000E-01	-6.620000000000E-02
	Si95	Si	1.180000000000E-01	1.180000000000E-01	-4.338000000000E-01
	Si96	Si	-1.180000000000E-01	-1.180000000000E-01	6.620000000000E-02


data_ EAB
_chemical_name_common		'EAB'
_cell_length_a		13.17800000
_cell_length_b		13.17800000
_cell_length_c		15.00500000
_cell_angle_alpha		90.000000
_cell_angle_beta		90.000000
_cell_angle_gamma		120.000000
_space group_name_H-M_alt		'P 1'
_space_group_IT_number		1

loop_
	_atom_site_label
	_atom_site_type_symbol
	_atom_site_fract_x
	_atom_site_fract_y
	_atom_site_fract_z
	O1	O	3.217000000000E-01	2.380000000000E-02	8.570000000000E-02
	O2	O	-3.217000000000E-01	-2.380000000000E-02	-4.143000000000E-01
	O3	O	-2.380000000000E-02	2.979000000000E-01	8.570000000000E-02
	O4	O	-2.979000000000E-01	-3.217000000000E-01	8.570000000000E-02
	O5	O	2.979000000000E-01	3.217000000000E-01	-4.143000000000E-01
	O6	O	2.380000000000E-02	-2.979000000000E-01	-4.143000000000E-01
	O7	O	2.979000000000E-01	-2.380000000000E-02	-8.570000000000E-02
	O8	O	-3.217000000000E-01	-2.979000000000E-01	-8.570000000000E-02
	O9	O	2.380000000000E-02	3.217000000000E-01	-8.570000000000E-02
	O10	O	-2.380000000000E-02	-3.217000000000E-01	4.143000000000E-01
	O11	O	3.217000000000E-01	2.979000000000E-01	4.143000000000E-01
	O12	O	-2.979000000000E-01	2.380000000000E-02	4.143000000000E-01
	O13	O	-3.217000000000E-01	-2.380000000000E-02	-8.570000000000E-02
	O14	O	3.217000000000E-01	2.380000000000E-02	4.143000000000E-01
	O15	O	2.380000000000E-02	-2.979000000000E-01	-8.570000000000E-02
	O16	O	2.979000000000E-01	3.217000000000E-01	-8.570000000000E-02
	O17	O	-2.979000000000E-01	-3.217000000000E-01	4.143000000000E-01
	O18	O	-2.380000000000E-02	2.979000000000E-01	4.143000000000E-01
	O19	O	-2.979000000000E-01	2.380000000000E-02	8.570000000000E-02
	O20	O	3.217000000000E-01	2.979000000000E-01	8.570000000000E-02
	O21	O	-2.380000000000E-02	-3.217000000000E-01	8.570000000000E-02
	O22	O	2.380000000000E-02	3.217000000000E-01	-4.143000000000E-01
	O23	O	-3.217000000000E-01	-2.979000000000E-01	-4.143000000000E-01
	O24	O	2.979000000000E-01	-2.380000000000E-02	-4.143000000000E-01
	O25	O	-2.377000000000E-01	-4.754000000000E-01	1.362000000000E-01
	O26	O	2.377000000000E-01	4.754000000000E-01	-3.638000000000E-01
	O27	O	4.754000000000E-01	2.377000000000E-01	1.362000000000E-01
	O28	O	-2.377000000000E-01	2.377000000000E-01	1.362000000000E-01
	O29	O	2.377000000000E-01	-2.377000000000E-01	-3.638000000000E-01
	O30	O	-4.754000000000E-01	-2.377000000000E-01	-3.638000000000E-01
	O31	O	2.377000000000E-01	4.754000000000E-01	-1.362000000000E-01
	O32	O	2.377000000000E-01	-2.377000000000E-01	-1.362000000000E-01
	O33	O	-4.754000000000E-01	-2.377000000000E-01	-1.362000000000E-01
	O34	O	4.754000000000E-01	2.377000000000E-01	3.638000000000E-01
	O35	O	-2.377000000000E-01	2.377000000000E-01	3.638000000000E-01
	O36	O	-2.377000000000E-01	-4.754000000000E-01	3.638000000000E-01
	O37	O	4.014000000000E-01	6.330000000000E-02	2.500000000000E-01
	O38	O	-4.014000000000E-01	-6.330000000000E-02	-2.500000000000E-01
	O39	O	-6.330000000000E-02	3.381000000000E-01	2.500000000000E-01
	O40	O	-3.381000000000E-01	-4.014000000000E-01	2.500000000000E-01
	O41	O	3.381000000000E-01	4.014000000000E-01	-2.500000000000E-01
	O42	O	6.330000000000E-02	-3.381000000000E-01	-2.500000000000E-01
	O43	O	3.381000000000E-01	-6.330000000000E-02	-2.500000000000E-01
	O44	O	-4.014000000000E-01	-3.381000000000E-01	-2.500000000000E-01
	O45	O	6.330000000000E-02	4.014000000000E-01	-2.500000000000E-01
	O46	O	-6.330000000000E-02	-4.014000000000E-01	2.500000000000E-01
	O47	O	4.014000000000E-01	3.381000000000E-01	2.500000000000E-01
	O48	O	-3.381000000000E-01	6.330000000000E-02	2.500000000000E-01
	O49	O	-4.603000000000E-01	7.940000000000E-02	1.179000000000E-01
	O50	O	4.603000000000E-01	-7.940000000000E-02	-3.821000000000E-01
	O51	O	-7.940000000000E-02	4.603000000000E-01	1.179000000000E-01
	O52	O	-4.603000000000E-01	4.603000000000E-01	1.179000000000E-01
	O53	O	4.603000000000E-01	-4.603000000000E-01	-3.821000000000E-01
	O54	O	7.940000000000E-02	-4.603000000000E-01	-3.821000000000E-01
	O55	O	4.603000000000E-01	-7.940000000000E-02	-1.179000000000E-01
	O56	O	4.603000000000E-01	-4.603000000000E-01	-1.179000000000E-01
	O57	O	7.940000000000E-02	-4.603000000000E-01	-1.179000000000E-01
	O58	O	-7.940000000000E-02	4.603000000000E-01	3.821000000000E-01
	O59	O	-4.603000000000E-01	4.603000000000E-01	3.821000000000E-01
	O60	O	-4.603000000000E-01	7.940000000000E-02	3.821000000000E-01
	O61	O	-1.125000000000E-01	-2.250000000000E-01	-4.815000000000E-01
	O62	O	1.125000000000E-01	2.250000000000E-01	1.850000000000E-02
	O63	O	2.250000000000E-01	1.125000000000E-01	-4.815000000000E-01
	O64	O	-1.125000000000E-01	1.125000000000E-01	-4.815000000000E-01
	O65	O	1.125000000000E-01	-1.125000000000E-01	1.850000000000E-02
	O66	O	-2.250000000000E-01	-1.125000000000E-01	1.850000000000E-02
	O67	O	1.125000000000E-01	2.250000000000E-01	4.815000000000E-01
	O68	O	1.125000000000E-01	-1.125000000000E-01	4.815000000000E-01
	O69	O	-2.250000000000E-01	-1.125000000000E-01	4.815000000000E-01
	O70	O	2.250000000000E-01	1.125000000000E-01	-1.850000000000E-02
	O71	O	-1.125000000000E-01	1.125000000000E-01	-1.850000000000E-02
	O72	O	-1.125000000000E-01	-2.250000000000E-01	-1.850000000000E-02
	Si73	Si	4.345000000000E-01	1.010000000000E-01	1.474000000000E-01
	Si74	Si	-4.345000000000E-01	-1.010000000000E-01	-3.526000000000E-01
	Si75	Si	-1.010000000000E-01	3.335000000000E-01	1.474000000000E-01
	Si76	Si	-3.335000000000E-01	-4.345000000000E-01	1.474000000000E-01
	Si77	Si	3.335000000000E-01	4.345000000000E-01	-3.526000000000E-01
	Si78	Si	1.010000000000E-01	-3.335000000000E-01	-3.526000000000E-01
	Si79	Si	3.335000000000E-01	-1.010000000000E-01	-1.474000000000E-01
	Si80	Si	-4.345000000000E-01	-3.335000000000E-01	-1.474000000000E-01
	Si81	Si	1.010000000000E-01	4.345000000000E-01	-1.474000000000E-01
	Si82	Si	-1.010000000000E-01	-4.345000000000E-01	3.526000000000E-01
	Si83	Si	4.345000000000E-01	3.335000000000E-01	3.526000000000E-01
	Si84	Si	-3.335000000000E-01	1.010000000000E-01	3.526000000000E-01
	Si85	Si	-4.345000000000E-01	-1.010000000000E-01	-1.474000000000E-01
	Si86	Si	4.345000000000E-01	1.010000000000E-01	3.526000000000E-01
	Si87	Si	1.010000000000E-01	-3.335000000000E-01	-1.474000000000E-01
	Si88	Si	3.335000000000E-01	4.345000000000E-01	-1.474000000000E-01
	Si89	Si	-3.335000000000E-01	-4.345000000000E-01	3.526000000000E-01
	Si90	Si	-1.010000000000E-01	3.335000000000E-01	3.526000000000E-01
	Si91	Si	-3.335000000000E-01	1.010000000000E-01	1.474000000000E-01
	Si92	Si	4.345000000000E-01	3.335000000000E-01	1.474000000000E-01
	Si93	Si	-1.010000000000E-01	-4.345000000000E-01	1.474000000000E-01
	Si94	Si	1.010000000000E-01	4.345000000000E-01	-3.526000000000E-01
	Si95	Si	-4.345000000000E-01	-3.335000000000E-01	-3.526000000000E-01
	Si96	Si	3.335000000000E-01	-1.010000000000E-01	-3.526000000000E-01
	Si97	Si	2.393000000000E-01	5.551115123126E-17	0.000000000000E+00
	Si98	Si	-2.393000000000E-01	-5.551115123126E-17	5.000000000000E-01
	Si99	Si	1.945629267348E-17	2.393000000000E-01	0.000000000000E+00
	Si100	Si	-2.393000000000E-01	-2.393000000000E-01	0.000000000000E+00
	Si101	Si	2.393000000000E-01	2.393000000000E-01	5.000000000000E-01
	Si102	Si	-1.945629267348E-17	-2.393000000000E-01	5.000000000000E-01
	Si103	Si	-2.393000000000E-01	-5.551115123126E-17	0.000000000000E+00
	Si104	Si	2.393000000000E-01	5.551115123126E-17	5.000000000000E-01
	Si105	Si	-1.945629267348E-17	-2.393000000000E-01	0.000000000000E+00
	Si106	Si	2.393000000000E-01	2.393000000000E-01	0.000000000000E+00
	Si107	Si	-2.393000000000E-01	-2.393000000000E-01	5.000000000000E-01
	Si108	Si	1.945629267348E-17	2.393000000000E-01	5.000000000000E-01


data_ EPI
_chemical_name_common		'EPI'
_cell_length_a		9.85967202
_cell_length_b		9.85967202
_cell_length_c		20.75400000
_cell_angle_alpha		74.628698
_cell_angle_beta		105.371302
_cell_angle_gamma		55.141688
_space group_name_H-M_alt		'P 1'
_space_group_IT_number		1

loop_
	_atom_site_label
	_atom_site_type_symbol
	_atom_site_fract_x
	_atom_site_fract_y
	_atom_site_fract_z
	O1	O	-6.750000000000E-02	2.957000000000E-01	6.320000000000E-02
	O2	O	2.957000000000E-01	-6.750000000000E-02	-6.320000000000E-02
	O3	O	6.750000000000E-02	-2.957000000000E-01	-6.320000000000E-02
	O4	O	-2.957000000000E-01	6.750000000000E-02	6.320000000000E-02
	O5	O	3.900000000000E-02	-3.900000000000E-02	9.605000000000E-02
	O6	O	-3.900000000000E-02	3.900000000000E-02	-9.605000000000E-02
	O7	O	3.023000000000E-01	-2.710000000000E-02	1.503500000000E-01
	O8	O	-2.710000000000E-02	3.023000000000E-01	-1.503500000000E-01
	O9	O	-3.023000000000E-01	2.710000000000E-02	-1.503500000000E-01
	O10	O	2.710000000000E-02	-3.023000000000E-01	1.503500000000E-01
	O11	O	1.091000000000E-01	1.091000000000E-01	0.000000000000E+00
	O12	O	-1.091000000000E-01	-1.091000000000E-01	0.000000000000E+00
	O13	O	-4.524000000000E-01	-9.200000000000E-03	1.320500000000E-01
	O14	O	-9.200000000000E-03	-4.524000000000E-01	-1.320500000000E-01
	O15	O	4.524000000000E-01	9.200000000000E-03	-1.320500000000E-01
	O16	O	9.200000000000E-03	4.524000000000E-01	1.320500000000E-01
	O17	O	-5.000000000000E-01	2.018701344126E-17	2.500000000000E-01
	O18	O	9.083528902126E-17	-5.000000000000E-01	2.500000000000E-01
	O19	O	-3.223000000000E-01	-3.223000000000E-01	2.500000000000E-01
	O20	O	3.223000000000E-01	3.223000000000E-01	2.500000000000E-01
	O21	O	-3.251000000000E-01	-3.251000000000E-01	0.000000000000E+00
	O22	O	3.251000000000E-01	3.251000000000E-01	0.000000000000E+00
	O23	O	-7.011592775406E-17	-5.000000000000E-01	0.000000000000E+00
	O24	O	-5.000000000000E-01	-4.499080293497E-17	0.000000000000E+00
	Si25	Si	9.490000000000E-02	8.510000000000E-02	7.705000000000E-02
	Si26	Si	8.510000000000E-02	9.490000000000E-02	-7.705000000000E-02
	Si27	Si	-9.490000000000E-02	-8.510000000000E-02	-7.705000000000E-02
	Si28	Si	-8.510000000000E-02	-9.490000000000E-02	7.705000000000E-02
	Si29	Si	-4.937000000000E-01	-8.890000000000E-02	1.949500000000E-01
	Si30	Si	-8.890000000000E-02	-4.937000000000E-01	-1.949500000000E-01
	Si31	Si	4.937000000000E-01	8.890000000000E-02	-1.949500000000E-01
	Si32	Si	8.890000000000E-02	4.937000000000E-01	1.949500000000E-01
	Si33	Si	-9.680000000000E-02	4.818000000000E-01	4.885000000000E-02
	Si34	Si	4.818000000000E-01	-9.680000000000E-02	-4.885000000000E-02
	Si35	Si	9.680000000000E-02	-4.818000000000E-01	-4.885000000000E-02
	Si36	Si	-4.818000000000E-01	9.680000000000E-02	4.885000000000E-02
	O37	O	3.900000000000E-02	-3.900000000000E-02	-4.039500000000E-01
	O38	O	-3.223000000000E-01	-3.223000000000E-01	-2.500000000000E-01
	O39	O	2.710000000000E-02	-3.023000000000E-01	-3.496500000000E-01
	O40	O	3.223000000000E-01	3.223000000000E-01	-2.500000000000E-01
	O41	O	6.750000000000E-02	-2.957000000000E-01	4.368000000000E-01
	O42	O	-3.251000000000E-01	-3.251000000000E-01	-5.000000000000E-01
	O43	O	1.091000000000E-01	1.091000000000E-01	-5.000000000000E-01
	O44	O	3.251000000000E-01	3.251000000000E-01	-5.000000000000E-01
	O45	O	-3.900000000000E-02	3.900000000000E-02	4.039500000000E-01
	O46	O	-1.185137271482E-16	-5.000000000000E-01	-5.000000000000E-01
	O47	O	-1.091000000000E-01	-1.091000000000E-01	-5.000000000000E-01
	O48	O	-5.000000000000E-01	4.515806345357E-16	-5.000000000000E-01
	O49	O	2.957000000000E-01	-6.750000000000E-02	4.368000000000E-01
	Si50	Si	9.490000000000E-02	8.510000000000E-02	-4.229500000000E-01
	O51	O	-4.524000000000E-01	-9.200000000000E-03	-3.679500000000E-01
	Si52	Si	8.510000000000E-02	9.490000000000E-02	4.229500000000E-01
	O53	O	3.023000000000E-01	-2.710000000000E-02	-3.496500000000E-01
	Si54	Si	-9.490000000000E-02	-8.510000000000E-02	4.229500000000E-01
	O55	O	-9.200000000000E-03	-4.524000000000E-01	3.679500000000E-01
	Si56	Si	-8.510000000000E-02	-9.490000000000E-02	-4.229500000000E-01
	O57	O	-2.957000000000E-01	6.750000000000E-02	-4.368000000000E-01
	Si58	Si	-4.937000000000E-01	-8.890000000000E-02	-3.050500000000E-01
	O59	O	4.524000000000E-01	9.200000000000E-03	3.679500000000E-01
	Si60	Si	-8.890000000000E-02	-4.937000000000E-01	3.050500000000E-01
	O61	O	-2.710000000000E-02	3.023000000000E-01	3.496500000000E-01
	Si62	Si	4.937000000000E-01	8.890000000000E-02	3.050500000000E-01
	O63	O	9.200000000000E-03	4.524000000000E-01	-3.679500000000E-01
	Si64	Si	8.890000000000E-02	4.937000000000E-01	-3.050500000000E-01
	O65	O	-6.750000000000E-02	2.957000000000E-01	-4.368000000000E-01
	Si66	Si	-9.680000000000E-02	4.818000000000E-01	-4.511500000000E-01
	O67	O	-5.000000000000E-01	2.913688985401E-17	-2.500000000000E-01
	Si68	Si	4.818000000000E-01	-9.680000000000E-02	4.511500000000E-01
	O69	O	-3.023000000000E-01	2.710000000000E-02	3.496500000000E-01
	Si70	Si	9.680000000000E-02	-4.818000000000E-01	4.511500000000E-01
	O71	O	8.188541260851E-17	-5.000000000000E-01	-2.500000000000E-01
	Si72	Si	-4.818000000000E-01	9.680000000000E-02	-4.511500000000E-01


data_ ERI
_chemical_name_common		'ERI'
_cell_length_a		13.05400000
_cell_length_b		13.05400000
_cell_length_c		15.17500000
_cell_angle_alpha		90.000000
_cell_angle_beta		90.000000
_cell_angle_gamma		120.000000
_space group_name_H-M_alt		'P 1'
_space_group_IT_number		1

loop_
	_atom_site_label
	_atom_site_type_symbol
	_atom_site_fract_x
	_atom_site_fract_y
	_atom_site_fract_z
	O1	O	1.289000000000E-01	2.578000000000E-01	-3.719000000000E-01
	O2	O	-1.289000000000E-01	-2.578000000000E-01	1.281000000000E-01
	O3	O	-2.578000000000E-01	-1.289000000000E-01	-3.719000000000E-01
	O4	O	1.289000000000E-01	-1.289000000000E-01	-3.719000000000E-01
	O5	O	-1.289000000000E-01	1.289000000000E-01	1.281000000000E-01
	O6	O	2.578000000000E-01	1.289000000000E-01	1.281000000000E-01
	O7	O	-1.289000000000E-01	-2.578000000000E-01	3.719000000000E-01
	O8	O	-1.289000000000E-01	1.289000000000E-01	3.719000000000E-01
	O9	O	2.578000000000E-01	1.289000000000E-01	3.719000000000E-01
	O10	O	-2.578000000000E-01	-1.289000000000E-01	-1.281000000000E-01
	O11	O	1.289000000000E-01	-1.289000000000E-01	-1.281000000000E-01
	O12	O	1.289000000000E-01	2.578000000000E-01	-1.281000000000E-01
	O13	O	3.600000000000E-02	3.474000000000E-01	1.634000000000E-01
	O14	O	-3.600000000000E-02	-3.474000000000E-01	-3.366000000000E-01
	O15	O	-3.474000000000E-01	-3.114000000000E-01	1.634000000000E-01
	O16	O	3.114000000000E-01	-3.600000000000E-02	1.634000000000E-01
	O17	O	-3.114000000000E-01	3.600000000000E-02	-3.366000000000E-01
	O18	O	3.474000000000E-01	3.114000000000E-01	-3.366000000000E-01
	O19	O	-3.114000000000E-01	-3.474000000000E-01	-1.634000000000E-01
	O20	O	-3.600000000000E-02	3.114000000000E-01	-1.634000000000E-01
	O21	O	3.474000000000E-01	3.600000000000E-02	-1.634000000000E-01
	O22	O	-3.474000000000E-01	-3.600000000000E-02	3.366000000000E-01
	O23	O	3.600000000000E-02	-3.114000000000E-01	3.366000000000E-01
	O24	O	3.114000000000E-01	3.474000000000E-01	3.366000000000E-01
	O25	O	-3.600000000000E-02	-3.474000000000E-01	-1.634000000000E-01
	O26	O	3.600000000000E-02	3.474000000000E-01	3.366000000000E-01
	O27	O	3.474000000000E-01	3.114000000000E-01	-1.634000000000E-01
	O28	O	-3.114000000000E-01	3.600000000000E-02	-1.634000000000E-01
	O29	O	3.114000000000E-01	-3.600000000000E-02	3.366000000000E-01
	O30	O	-3.474000000000E-01	-3.114000000000E-01	3.366000000000E-01
	O31	O	3.114000000000E-01	3.474000000000E-01	1.634000000000E-01
	O32	O	3.600000000000E-02	-3.114000000000E-01	1.634000000000E-01
	O33	O	-3.474000000000E-01	-3.600000000000E-02	1.634000000000E-01
	O34	O	3.474000000000E-01	3.600000000000E-02	-3.366000000000E-01
	O35	O	-3.600000000000E-02	3.114000000000E-01	-3.366000000000E-01
	O36	O	-3.114000000000E-01	-3.474000000000E-01	-3.366000000000E-01
	O37	O	9.570000000000E-02	1.914000000000E-01	1.139000000000E-01
	O38	O	-9.570000000000E-02	-1.914000000000E-01	-3.861000000000E-01
	O39	O	-1.914000000000E-01	-9.570000000000E-02	1.139000000000E-01
	O40	O	9.570000000000E-02	-9.570000000000E-02	1.139000000000E-01
	O41	O	-9.570000000000E-02	9.570000000000E-02	-3.861000000000E-01
	O42	O	1.914000000000E-01	9.570000000000E-02	-3.861000000000E-01
	O43	O	-9.570000000000E-02	-1.914000000000E-01	-1.139000000000E-01
	O44	O	-9.570000000000E-02	9.570000000000E-02	-1.139000000000E-01
	O45	O	1.914000000000E-01	9.570000000000E-02	-1.139000000000E-01
	O46	O	-1.914000000000E-01	-9.570000000000E-02	3.861000000000E-01
	O47	O	9.570000000000E-02	-9.570000000000E-02	3.861000000000E-01
	O48	O	9.570000000000E-02	1.914000000000E-01	3.861000000000E-01
	O49	O	2.705000000000E-01	-2.775557561563E-17	0.000000000000E+00
	O50	O	-2.705000000000E-01	2.775557561563E-17	5.000000000000E-01
	O51	O	3.928221615614E-17	2.705000000000E-01	0.000000000000E+00
	O52	O	-2.705000000000E-01	-2.705000000000E-01	0.000000000000E+00
	O53	O	2.705000000000E-01	2.705000000000E-01	5.000000000000E-01
	O54	O	-3.928221615614E-17	-2.705000000000E-01	5.000000000000E-01
	O55	O	-2.705000000000E-01	2.775557561563E-17	0.000000000000E+00
	O56	O	2.705000000000E-01	-2.775557561563E-17	5.000000000000E-01
	O57	O	-3.928221615614E-17	-2.705000000000E-01	0.000000000000E+00
	O58	O	2.705000000000E-01	2.705000000000E-01	0.000000000000E+00
	O59	O	-2.705000000000E-01	-2.705000000000E-01	5.000000000000E-01
	O60	O	3.928221615614E-17	2.705000000000E-01	5.000000000000E-01
	O61	O	2.356000000000E-01	4.712000000000E-01	2.500000000000E-01
	O62	O	-2.356000000000E-01	-4.712000000000E-01	-2.500000000000E-01
	O63	O	-4.712000000000E-01	-2.356000000000E-01	2.500000000000E-01
	O64	O	2.356000000000E-01	-2.356000000000E-01	2.500000000000E-01
	O65	O	-2.356000000000E-01	2.356000000000E-01	-2.500000000000E-01
	O66	O	4.712000000000E-01	2.356000000000E-01	-2.500000000000E-01
	O67	O	4.621500000000E-01	-7.570000000000E-02	2.500000000000E-01
	O68	O	-4.621500000000E-01	7.570000000000E-02	-2.500000000000E-01
	O69	O	7.570000000000E-02	-4.621500000000E-01	2.500000000000E-01
	O70	O	4.621500000000E-01	-4.621500000000E-01	2.500000000000E-01
	O71	O	-4.621500000000E-01	4.621500000000E-01	-2.500000000000E-01
	O72	O	-7.570000000000E-02	4.621500000000E-01	-2.500000000000E-01
	Si73	Si	6.000000000000E-04	2.345000000000E-01	1.014000000000E-01
	Si74	Si	-6.000000000000E-04	-2.345000000000E-01	-3.986000000000E-01
	Si75	Si	-2.345000000000E-01	-2.339000000000E-01	1.014000000000E-01
	Si76	Si	2.339000000000E-01	-6.000000000000E-04	1.014000000000E-01
	Si77	Si	-2.339000000000E-01	6.000000000000E-04	-3.986000000000E-01
	Si78	Si	2.345000000000E-01	2.339000000000E-01	-3.986000000000E-01
	Si79	Si	-2.339000000000E-01	-2.345000000000E-01	-1.014000000000E-01
	Si80	Si	-6.000000000000E-04	2.339000000000E-01	-1.014000000000E-01
	Si81	Si	2.345000000000E-01	6.000000000000E-04	-1.014000000000E-01
	Si82	Si	-2.345000000000E-01	-6.000000000000E-04	3.986000000000E-01
	Si83	Si	6.000000000000E-04	-2.339000000000E-01	3.986000000000E-01
	Si84	Si	2.339000000000E-01	2.345000000000E-01	3.986000000000E-01
	Si85	Si	-6.000000000000E-04	-2.345000000000E-01	-1.014000000000E-01
	Si86	Si	6.000000000000E-04	2.345000000000E-01	3.986000000000E-01
	Si87	Si	2.345000000000E-01	2.339000000000E-01	-1.014000000000E-01
	Si88	Si	-2.339000000000E-01	6.000000000000E-04	-1.014000000000E-01
	Si89	Si	2.339000000000E-01	-6.000000000000E-04	3.986000000000E-01
	Si90	Si	-2.345000000000E-01	-2.339000000000E-01	3.986000000000E-01
	Si91	Si	2.339000000000E-01	2.345000000000E-01	1.014000000000E-01
	Si92	Si	6.000000000000E-04	-2.339000000000E-01	1.014000000000E-01
	Si93	Si	-2.345000000000E-01	-6.000000000000E-04	1.014000000000E-01
	Si94	Si	2.345000000000E-01	6.000000000000E-04	-3.986000000000E-01
	Si95	Si	-6.000000000000E-04	2.339000000000E-01	-3.986000000000E-01
	Si96	Si	-2.339000000000E-01	-2.345000000000E-01	-3.986000000000E-01
	Si97	Si	9.610000000000E-02	4.261000000000E-01	2.500000000000E-01
	Si98	Si	-9.610000000000E-02	-4.261000000000E-01	-2.500000000000E-01
	Si99	Si	-4.261000000000E-01	-3.300000000000E-01	2.500000000000E-01
	Si100	Si	3.300000000000E-01	-9.610000000000E-02	2.500000000000E-01
	Si101	Si	-3.300000000000E-01	9.610000000000E-02	-2.500000000000E-01
	Si102	Si	4.261000000000E-01	3.300000000000E-01	-2.500000000000E-01
	Si103	Si	-3.300000000000E-01	-4.261000000000E-01	-2.500000000000E-01
	Si104	Si	-9.610000000000E-02	3.300000000000E-01	-2.500000000000E-01
	Si105	Si	4.261000000000E-01	9.610000000000E-02	-2.500000000000E-01
	Si106	Si	-4.261000000000E-01	-9.610000000000E-02	2.500000000000E-01
	Si107	Si	9.610000000000E-02	-3.300000000000E-01	2.500000000000E-01
	Si108	Si	3.300000000000E-01	4.261000000000E-01	2.500000000000E-01


data_ ESV
_chemical_name_common		'ESV'
_cell_length_a		9.68600000
_cell_length_b		12.22600000
_cell_length_c		22.83600000
_cell_angle_alpha		90.000000
_cell_angle_beta		90.000000
_cell_angle_gamma		90.000000
_space group_name_H-M_alt		'P 1'
_space_group_IT_number		1

loop_
	_atom_site_label
	_atom_site_type_symbol
	_atom_site_fract_x
	_atom_site_fract_y
	_atom_site_fract_z
	O1	O	2.957000000000E-01	-2.500000000000E-01	-1.498000000000E-01
	O2	O	2.043000000000E-01	2.500000000000E-01	3.502000000000E-01
	O3	O	-2.043000000000E-01	-2.500000000000E-01	-3.502000000000E-01
	O4	O	-2.957000000000E-01	2.500000000000E-01	1.498000000000E-01
	O5	O	2.484000000000E-01	-8.170000000000E-02	-8.100000000000E-02
	O6	O	2.516000000000E-01	8.170000000000E-02	4.190000000000E-01
	O7	O	-2.516000000000E-01	-4.183000000000E-01	-4.190000000000E-01
	O8	O	-2.484000000000E-01	4.183000000000E-01	8.100000000000E-02
	O9	O	-2.484000000000E-01	8.170000000000E-02	8.100000000000E-02
	O10	O	-2.516000000000E-01	-8.170000000000E-02	-4.190000000000E-01
	O11	O	2.516000000000E-01	4.183000000000E-01	4.190000000000E-01
	O12	O	2.484000000000E-01	-4.183000000000E-01	-8.100000000000E-02
	O13	O	4.970000000000E-01	-1.144000000000E-01	-1.236000000000E-01
	O14	O	3.000000000000E-03	1.144000000000E-01	3.764000000000E-01
	O15	O	-3.000000000000E-03	-3.856000000000E-01	-3.764000000000E-01
	O16	O	-4.970000000000E-01	3.856000000000E-01	1.236000000000E-01
	O17	O	-4.970000000000E-01	1.144000000000E-01	1.236000000000E-01
	O18	O	-3.000000000000E-03	-1.144000000000E-01	-3.764000000000E-01
	O19	O	3.000000000000E-03	3.856000000000E-01	3.764000000000E-01
	O20	O	4.970000000000E-01	-3.856000000000E-01	-1.236000000000E-01
	O21	O	2.966000000000E-01	-5.080000000000E-02	-1.932000000000E-01
	O22	O	2.034000000000E-01	5.080000000000E-02	3.068000000000E-01
	O23	O	-2.034000000000E-01	-4.492000000000E-01	-3.068000000000E-01
	O24	O	-2.966000000000E-01	4.492000000000E-01	1.932000000000E-01
	O25	O	-2.966000000000E-01	5.080000000000E-02	1.932000000000E-01
	O26	O	-2.034000000000E-01	-5.080000000000E-02	-3.068000000000E-01
	O27	O	2.034000000000E-01	4.492000000000E-01	3.068000000000E-01
	O28	O	2.966000000000E-01	-4.492000000000E-01	-1.932000000000E-01
	O29	O	-3.169000000000E-01	-2.500000000000E-01	-4.851000000000E-01
	O30	O	-1.831000000000E-01	2.500000000000E-01	1.490000000000E-02
	O31	O	1.831000000000E-01	-2.500000000000E-01	-1.490000000000E-02
	O32	O	3.169000000000E-01	2.500000000000E-01	4.851000000000E-01
	O33	O	-3.152000000000E-01	-5.200000000000E-02	4.702000000000E-01
	O34	O	-1.848000000000E-01	5.200000000000E-02	-2.980000000000E-02
	O35	O	1.848000000000E-01	-4.480000000000E-01	2.980000000000E-02
	O36	O	3.152000000000E-01	4.480000000000E-01	-4.702000000000E-01
	O37	O	3.152000000000E-01	5.200000000000E-02	-4.702000000000E-01
	O38	O	1.848000000000E-01	-5.200000000000E-02	2.980000000000E-02
	O39	O	-1.848000000000E-01	4.480000000000E-01	-2.980000000000E-02
	O40	O	-3.152000000000E-01	-4.480000000000E-01	4.702000000000E-01
	O41	O	4.925000000000E-01	-1.079000000000E-01	-4.543000000000E-01
	O42	O	7.500000000000E-03	1.079000000000E-01	4.570000000000E-02
	O43	O	-7.500000000000E-03	-3.921000000000E-01	-4.570000000000E-02
	O44	O	-4.925000000000E-01	3.921000000000E-01	4.543000000000E-01
	O45	O	-4.925000000000E-01	1.079000000000E-01	4.543000000000E-01
	O46	O	-7.500000000000E-03	-1.079000000000E-01	-4.570000000000E-02
	O47	O	7.500000000000E-03	3.921000000000E-01	4.570000000000E-02
	O48	O	4.925000000000E-01	-3.921000000000E-01	-4.543000000000E-01
	O49	O	-3.750000000000E-02	4.563000000000E-01	-1.265000000000E-01
	O50	O	-4.625000000000E-01	-4.563000000000E-01	3.735000000000E-01
	O51	O	4.625000000000E-01	4.370000000000E-02	-3.735000000000E-01
	O52	O	3.750000000000E-02	-4.370000000000E-02	1.265000000000E-01
	O53	O	3.750000000000E-02	-4.563000000000E-01	1.265000000000E-01
	O54	O	4.625000000000E-01	4.563000000000E-01	-3.735000000000E-01
	O55	O	-4.625000000000E-01	-4.370000000000E-02	3.735000000000E-01
	O56	O	-3.750000000000E-02	4.370000000000E-02	-1.265000000000E-01
	O57	O	-2.347000000000E-01	-3.997000000000E-01	-1.082000000000E-01
	O58	O	-2.653000000000E-01	3.997000000000E-01	3.918000000000E-01
	O59	O	2.653000000000E-01	-1.003000000000E-01	-3.918000000000E-01
	O60	O	2.347000000000E-01	1.003000000000E-01	1.082000000000E-01
	O61	O	2.347000000000E-01	3.997000000000E-01	1.082000000000E-01
	O62	O	2.653000000000E-01	-3.997000000000E-01	-3.918000000000E-01
	O63	O	-2.653000000000E-01	1.003000000000E-01	3.918000000000E-01
	O64	O	-2.347000000000E-01	-1.003000000000E-01	-1.082000000000E-01
	O65	O	1.628000000000E-01	-2.500000000000E-01	-3.217000000000E-01
	O66	O	3.372000000000E-01	2.500000000000E-01	1.783000000000E-01
	O67	O	-3.372000000000E-01	-2.500000000000E-01	-1.783000000000E-01
	O68	O	-1.628000000000E-01	2.500000000000E-01	3.217000000000E-01
	O69	O	1.549000000000E-01	-4.575000000000E-01	-2.912000000000E-01
	O70	O	3.451000000000E-01	4.575000000000E-01	2.088000000000E-01
	O71	O	-3.451000000000E-01	-4.250000000000E-02	-2.088000000000E-01
	O72	O	-1.549000000000E-01	4.250000000000E-02	2.912000000000E-01
	O73	O	-1.549000000000E-01	4.575000000000E-01	2.912000000000E-01
	O74	O	-3.451000000000E-01	-4.575000000000E-01	-2.088000000000E-01
	O75	O	3.451000000000E-01	4.250000000000E-02	2.088000000000E-01
	O76	O	1.549000000000E-01	-4.250000000000E-02	-2.912000000000E-01
	O77	O	-4.160000000000E-02	2.500000000000E-01	-1.592000000000E-01
	O78	O	-4.584000000000E-01	-2.500000000000E-01	3.408000000000E-01
	O79	O	4.584000000000E-01	2.500000000000E-01	-3.408000000000E-01
	O80	O	4.160000000000E-02	-2.500000000000E-01	1.592000000000E-01
	O81	O	3.545000000000E-01	4.011000000000E-01	-2.720000000000E-01
	O82	O	1.455000000000E-01	-4.011000000000E-01	2.280000000000E-01
	O83	O	-1.455000000000E-01	9.890000000000E-02	-2.280000000000E-01
	O84	O	-3.545000000000E-01	-9.890000000000E-02	2.720000000000E-01
	O85	O	-3.545000000000E-01	-4.011000000000E-01	2.720000000000E-01
	O86	O	-1.455000000000E-01	4.011000000000E-01	-2.280000000000E-01
	O87	O	1.455000000000E-01	-9.890000000000E-02	2.280000000000E-01
	O88	O	3.545000000000E-01	9.890000000000E-02	-2.720000000000E-01
	O89	O	1.231000000000E-01	3.891000000000E-01	-2.119000000000E-01
	O90	O	3.769000000000E-01	-3.891000000000E-01	2.881000000000E-01
	O91	O	-3.769000000000E-01	1.109000000000E-01	-2.881000000000E-01
	O92	O	-1.231000000000E-01	-1.109000000000E-01	2.119000000000E-01
	O93	O	-1.231000000000E-01	-3.891000000000E-01	2.119000000000E-01
	O94	O	-3.769000000000E-01	3.891000000000E-01	-2.881000000000E-01
	O95	O	3.769000000000E-01	-1.109000000000E-01	2.881000000000E-01
	O96	O	1.231000000000E-01	1.109000000000E-01	-2.119000000000E-01
	Si97	Si	3.342000000000E-01	-1.242000000000E-01	-1.370000000000E-01
	Si98	Si	1.658000000000E-01	1.242000000000E-01	3.630000000000E-01
	Si99	Si	-1.658000000000E-01	-3.758000000000E-01	-3.630000000000E-01
	Si100	Si	-3.342000000000E-01	3.758000000000E-01	1.370000000000E-01
	Si101	Si	-3.342000000000E-01	1.242000000000E-01	1.370000000000E-01
	Si102	Si	-1.658000000000E-01	-1.242000000000E-01	-3.630000000000E-01
	Si103	Si	1.658000000000E-01	3.758000000000E-01	3.630000000000E-01
	Si104	Si	3.342000000000E-01	-3.758000000000E-01	-1.370000000000E-01
	Si105	Si	-3.478000000000E-01	-1.230000000000E-01	-4.721000000000E-01
	Si106	Si	-1.522000000000E-01	1.230000000000E-01	2.790000000000E-02
	Si107	Si	1.522000000000E-01	-3.770000000000E-01	-2.790000000000E-02
	Si108	Si	3.478000000000E-01	3.770000000000E-01	4.721000000000E-01
	Si109	Si	3.478000000000E-01	1.230000000000E-01	4.721000000000E-01
	Si110	Si	1.522000000000E-01	-1.230000000000E-01	-2.790000000000E-02
	Si111	Si	-1.522000000000E-01	3.770000000000E-01	2.790000000000E-02
	Si112	Si	-3.478000000000E-01	-3.770000000000E-01	-4.721000000000E-01
	Si113	Si	-1.161000000000E-01	-4.721000000000E-01	-7.770000000000E-02
	Si114	Si	-3.839000000000E-01	4.721000000000E-01	4.223000000000E-01
	Si115	Si	3.839000000000E-01	-2.790000000000E-02	-4.223000000000E-01
	Si116	Si	1.161000000000E-01	2.790000000000E-02	7.770000000000E-02
	Si117	Si	1.161000000000E-01	4.721000000000E-01	7.770000000000E-02
	Si118	Si	3.839000000000E-01	-4.721000000000E-01	-4.223000000000E-01
	Si119	Si	-3.839000000000E-01	2.790000000000E-02	4.223000000000E-01
	Si120	Si	-1.161000000000E-01	-2.790000000000E-02	-7.770000000000E-02
	Si121	Si	1.453000000000E-01	-1.265000000000E-01	-3.452000000000E-01
	Si122	Si	3.547000000000E-01	1.265000000000E-01	1.548000000000E-01
	Si123	Si	-3.547000000000E-01	-3.735000000000E-01	-1.548000000000E-01
	Si124	Si	-1.453000000000E-01	3.735000000000E-01	3.452000000000E-01
	Si125	Si	-1.453000000000E-01	1.265000000000E-01	3.452000000000E-01
	Si126	Si	-3.547000000000E-01	-1.265000000000E-01	-1.548000000000E-01
	Si127	Si	3.547000000000E-01	3.735000000000E-01	1.548000000000E-01
	Si128	Si	1.453000000000E-01	-3.735000000000E-01	-3.452000000000E-01
	Si129	Si	-2.560000000000E-02	1.256000000000E-01	-1.814000000000E-01
	Si130	Si	-4.744000000000E-01	-1.256000000000E-01	3.186000000000E-01
	Si131	Si	4.744000000000E-01	3.744000000000E-01	-3.186000000000E-01
	Si132	Si	2.560000000000E-02	-3.744000000000E-01	1.814000000000E-01
	Si133	Si	2.560000000000E-02	-1.256000000000E-01	1.814000000000E-01
	Si134	Si	4.744000000000E-01	1.256000000000E-01	-3.186000000000E-01
	Si135	Si	-4.744000000000E-01	-3.744000000000E-01	3.186000000000E-01
	Si136	Si	-2.560000000000E-02	3.744000000000E-01	-1.814000000000E-01
	Si137	Si	2.325000000000E-01	4.708000000000E-01	-2.420000000000E-01
	Si138	Si	2.675000000000E-01	-4.708000000000E-01	2.580000000000E-01
	Si139	Si	-2.675000000000E-01	2.920000000000E-02	-2.580000000000E-01
	Si140	Si	-2.325000000000E-01	-2.920000000000E-02	2.420000000000E-01
	Si141	Si	-2.325000000000E-01	-4.708000000000E-01	2.420000000000E-01
	Si142	Si	-2.675000000000E-01	4.708000000000E-01	-2.580000000000E-01
	Si143	Si	2.675000000000E-01	-2.920000000000E-02	2.580000000000E-01
	Si144	Si	2.325000000000E-01	2.920000000000E-02	-2.420000000000E-01


data_ ETR
_chemical_name_common		'ETR'
_cell_length_a		20.63400000
_cell_length_b		20.63400000
_cell_length_c		8.42600000
_cell_angle_alpha		90.000000
_cell_angle_beta		90.000000
_cell_angle_gamma		120.000000
_space group_name_H-M_alt		'P 1'
_space_group_IT_number		1

loop_
	_atom_site_label
	_atom_site_type_symbol
	_atom_site_fract_x
	_atom_site_fract_y
	_atom_site_fract_z
	O1	O	-2.655000000000E-01	7.500000000000E-02	-1.617000000000E-01
	O2	O	2.655000000000E-01	-7.500000000000E-02	3.383000000000E-01
	O3	O	-7.500000000000E-02	-3.405000000000E-01	-1.617000000000E-01
	O4	O	3.405000000000E-01	2.655000000000E-01	-1.617000000000E-01
	O5	O	-3.405000000000E-01	-2.655000000000E-01	3.383000000000E-01
	O6	O	7.500000000000E-02	3.405000000000E-01	3.383000000000E-01
	O7	O	3.405000000000E-01	7.500000000000E-02	-1.617000000000E-01
	O8	O	-2.655000000000E-01	-3.405000000000E-01	-1.617000000000E-01
	O9	O	-7.500000000000E-02	2.655000000000E-01	-1.617000000000E-01
	O10	O	7.500000000000E-02	-2.655000000000E-01	3.383000000000E-01
	O11	O	2.655000000000E-01	3.405000000000E-01	3.383000000000E-01
	O12	O	-3.405000000000E-01	-7.500000000000E-02	3.383000000000E-01
	O13	O	-1.674000000000E-01	1.674000000000E-01	4.700000000000E-02
	O14	O	1.674000000000E-01	-1.674000000000E-01	-4.530000000000E-01
	O15	O	-1.674000000000E-01	-3.348000000000E-01	4.700000000000E-02
	O16	O	3.348000000000E-01	1.674000000000E-01	4.700000000000E-02
	O17	O	-3.348000000000E-01	-1.674000000000E-01	-4.530000000000E-01
	O18	O	1.674000000000E-01	3.348000000000E-01	-4.530000000000E-01
	O19	O	-3.031000000000E-01	1.479000000000E-01	3.700000000000E-02
	O20	O	3.031000000000E-01	-1.479000000000E-01	-4.630000000000E-01
	O21	O	-1.479000000000E-01	-4.510000000000E-01	3.700000000000E-02
	O22	O	4.510000000000E-01	3.031000000000E-01	3.700000000000E-02
	O23	O	-4.510000000000E-01	-3.031000000000E-01	-4.630000000000E-01
	O24	O	1.479000000000E-01	4.510000000000E-01	-4.630000000000E-01
	O25	O	4.510000000000E-01	1.479000000000E-01	3.700000000000E-02
	O26	O	-3.031000000000E-01	-4.510000000000E-01	3.700000000000E-02
	O27	O	-1.479000000000E-01	3.031000000000E-01	3.700000000000E-02
	O28	O	1.479000000000E-01	-3.031000000000E-01	-4.630000000000E-01
	O29	O	3.031000000000E-01	4.510000000000E-01	-4.630000000000E-01
	O30	O	-4.510000000000E-01	-1.479000000000E-01	-4.630000000000E-01
	O31	O	-2.846000000000E-01	3.900000000000E-02	1.408000000000E-01
	O32	O	2.846000000000E-01	-3.900000000000E-02	-3.592000000000E-01
	O33	O	-3.900000000000E-02	-3.236000000000E-01	1.408000000000E-01
	O34	O	3.236000000000E-01	2.846000000000E-01	1.408000000000E-01
	O35	O	-3.236000000000E-01	-2.846000000000E-01	-3.592000000000E-01
	O36	O	3.900000000000E-02	3.236000000000E-01	-3.592000000000E-01
	O37	O	3.236000000000E-01	3.900000000000E-02	1.408000000000E-01
	O38	O	-2.846000000000E-01	-3.236000000000E-01	1.408000000000E-01
	O39	O	-3.900000000000E-02	2.846000000000E-01	1.408000000000E-01
	O40	O	3.900000000000E-02	-2.846000000000E-01	-3.592000000000E-01
	O41	O	2.846000000000E-01	3.236000000000E-01	-3.592000000000E-01
	O42	O	-3.236000000000E-01	-3.900000000000E-02	-3.592000000000E-01
	O43	O	-2.762000000000E-01	2.762000000000E-01	1.582000000000E-01
	O44	O	2.762000000000E-01	-2.762000000000E-01	-3.418000000000E-01
	O45	O	-2.762000000000E-01	4.476000000000E-01	1.582000000000E-01
	O46	O	-4.476000000000E-01	2.762000000000E-01	1.582000000000E-01
	O47	O	4.476000000000E-01	-2.762000000000E-01	-3.418000000000E-01
	O48	O	2.762000000000E-01	-4.476000000000E-01	-3.418000000000E-01
	O49	O	-4.146000000000E-01	4.146000000000E-01	1.019000000000E-01
	O50	O	4.146000000000E-01	-4.146000000000E-01	-3.981000000000E-01
	O51	O	-4.146000000000E-01	1.708000000000E-01	1.019000000000E-01
	O52	O	-1.708000000000E-01	4.146000000000E-01	1.019000000000E-01
	O53	O	1.708000000000E-01	-4.146000000000E-01	-3.981000000000E-01
	O54	O	4.146000000000E-01	-1.708000000000E-01	-3.981000000000E-01
	O55	O	-3.389000000000E-01	1.553000000000E-01	3.351000000000E-01
	O56	O	3.389000000000E-01	-1.553000000000E-01	-1.649000000000E-01
	O57	O	-1.553000000000E-01	-4.942000000000E-01	3.351000000000E-01
	O58	O	4.942000000000E-01	3.389000000000E-01	3.351000000000E-01
	O59	O	-4.942000000000E-01	-3.389000000000E-01	-1.649000000000E-01
	O60	O	1.553000000000E-01	4.942000000000E-01	-1.649000000000E-01
	O61	O	4.942000000000E-01	1.553000000000E-01	3.351000000000E-01
	O62	O	-3.389000000000E-01	-4.942000000000E-01	3.351000000000E-01
	O63	O	-1.553000000000E-01	3.389000000000E-01	3.351000000000E-01
	O64	O	1.553000000000E-01	-3.389000000000E-01	-1.649000000000E-01
	O65	O	3.389000000000E-01	4.942000000000E-01	-1.649000000000E-01
	O66	O	-4.942000000000E-01	-1.553000000000E-01	-1.649000000000E-01
	O67	O	-4.173000000000E-01	-7.910000000000E-02	8.440000000000E-02
	O68	O	4.173000000000E-01	7.910000000000E-02	-4.156000000000E-01
	O69	O	7.910000000000E-02	-3.382000000000E-01	8.440000000000E-02
	O70	O	3.382000000000E-01	4.173000000000E-01	8.440000000000E-02
	O71	O	-3.382000000000E-01	-4.173000000000E-01	-4.156000000000E-01
	O72	O	-7.910000000000E-02	3.382000000000E-01	-4.156000000000E-01
	O73	O	3.382000000000E-01	-7.910000000000E-02	8.440000000000E-02
	O74	O	-4.173000000000E-01	-3.382000000000E-01	8.440000000000E-02
	O75	O	7.910000000000E-02	4.173000000000E-01	8.440000000000E-02
	O76	O	-7.910000000000E-02	-4.173000000000E-01	-4.156000000000E-01
	O77	O	4.173000000000E-01	3.382000000000E-01	-4.156000000000E-01
	O78	O	-3.382000000000E-01	7.910000000000E-02	-4.156000000000E-01
	O79	O	-4.012000000000E-01	9.900000000000E-03	3.195000000000E-01
	O80	O	4.012000000000E-01	-9.900000000000E-03	-1.805000000000E-01
	O81	O	-9.900000000000E-03	-4.111000000000E-01	3.195000000000E-01
	O82	O	4.111000000000E-01	4.012000000000E-01	3.195000000000E-01
	O83	O	-4.111000000000E-01	-4.012000000000E-01	-1.805000000000E-01
	O84	O	9.900000000000E-03	4.111000000000E-01	-1.805000000000E-01
	O85	O	4.111000000000E-01	9.900000000000E-03	3.195000000000E-01
	O86	O	-4.012000000000E-01	-4.111000000000E-01	3.195000000000E-01
	O87	O	-9.900000000000E-03	4.012000000000E-01	3.195000000000E-01
	O88	O	9.900000000000E-03	-4.012000000000E-01	-1.805000000000E-01
	O89	O	4.012000000000E-01	4.111000000000E-01	-1.805000000000E-01
	O90	O	-4.111000000000E-01	-9.900000000000E-03	-1.805000000000E-01
	O91	O	-4.646500000000E-01	4.646500000000E-01	4.887000000000E-01
	O92	O	4.646500000000E-01	-4.646500000000E-01	-1.130000000000E-02
	O93	O	-4.646500000000E-01	7.070000000000E-02	4.887000000000E-01
	O94	O	-7.070000000000E-02	4.646500000000E-01	4.887000000000E-01
	O95	O	7.070000000000E-02	-4.646500000000E-01	-1.130000000000E-02
	O96	O	4.646500000000E-01	-7.070000000000E-02	-1.130000000000E-02
	Si97	Si	-2.543000000000E-01	1.073000000000E-01	1.650000000000E-02
	Si98	Si	2.543000000000E-01	-1.073000000000E-01	-4.835000000000E-01
	Si99	Si	-1.073000000000E-01	-3.616000000000E-01	1.650000000000E-02
	Si100	Si	3.616000000000E-01	2.543000000000E-01	1.650000000000E-02
	Si101	Si	-3.616000000000E-01	-2.543000000000E-01	-4.835000000000E-01
	Si102	Si	1.073000000000E-01	3.616000000000E-01	-4.835000000000E-01
	Si103	Si	3.616000000000E-01	1.073000000000E-01	1.650000000000E-02
	Si104	Si	-2.543000000000E-01	-3.616000000000E-01	1.650000000000E-02
	Si105	Si	-1.073000000000E-01	2.543000000000E-01	1.650000000000E-02
	Si106	Si	1.073000000000E-01	-2.543000000000E-01	-4.835000000000E-01
	Si107	Si	2.543000000000E-01	3.616000000000E-01	-4.835000000000E-01
	Si108	Si	-3.616000000000E-01	-1.073000000000E-01	-4.835000000000E-01
	Si109	Si	-3.332000000000E-01	1.872000000000E-01	1.581000000000E-01
	Si110	Si	3.332000000000E-01	-1.872000000000E-01	-3.419000000000E-01
	Si111	Si	-1.872000000000E-01	4.796000000000E-01	1.581000000000E-01
	Si112	Si	-4.796000000000E-01	3.332000000000E-01	1.581000000000E-01
	Si113	Si	4.796000000000E-01	-3.332000000000E-01	-3.419000000000E-01
	Si114	Si	1.872000000000E-01	-4.796000000000E-01	-3.419000000000E-01
	Si115	Si	-4.796000000000E-01	1.872000000000E-01	1.581000000000E-01
	Si116	Si	-3.332000000000E-01	4.796000000000E-01	1.581000000000E-01
	Si117	Si	-1.872000000000E-01	3.332000000000E-01	1.581000000000E-01
	Si118	Si	1.872000000000E-01	-3.332000000000E-01	-3.419000000000E-01
	Si119	Si	3.332000000000E-01	-4.796000000000E-01	-3.419000000000E-01
	Si120	Si	4.796000000000E-01	-1.872000000000E-01	-3.419000000000E-01
	Si121	Si	-3.604000000000E-01	-2.610000000000E-02	2.199000000000E-01
	Si122	Si	3.604000000000E-01	2.610000000000E-02	-2.801000000000E-01
	Si123	Si	2.610000000000E-02	-3.343000000000E-01	2.199000000000E-01
	Si124	Si	3.343000000000E-01	3.604000000000E-01	2.199000000000E-01
	Si125	Si	-3.343000000000E-01	-3.604000000000E-01	-2.801000000000E-01
	Si126	Si	-2.610000000000E-02	3.343000000000E-01	-2.801000000000E-01
	Si127	Si	3.343000000000E-01	-2.610000000000E-02	2.199000000000E-01
	Si128	Si	-3.604000000000E-01	-3.343000000000E-01	2.199000000000E-01
	Si129	Si	2.610000000000E-02	3.604000000000E-01	2.199000000000E-01
	Si130	Si	-2.610000000000E-02	-3.604000000000E-01	-2.801000000000E-01
	Si131	Si	3.604000000000E-01	3.343000000000E-01	-2.801000000000E-01
	Si132	Si	-3.343000000000E-01	2.610000000000E-02	-2.801000000000E-01
	Si133	Si	-3.863000000000E-01	7.870000000000E-02	4.335000000000E-01
	Si134	Si	3.863000000000E-01	-7.870000000000E-02	-6.650000000000E-02
	Si135	Si	-7.870000000000E-02	-4.650000000000E-01	4.335000000000E-01
	Si136	Si	4.650000000000E-01	3.863000000000E-01	4.335000000000E-01
	Si137	Si	-4.650000000000E-01	-3.863000000000E-01	-6.650000000000E-02
	Si138	Si	7.870000000000E-02	4.650000000000E-01	-6.650000000000E-02
	Si139	Si	4.650000000000E-01	7.870000000000E-02	4.335000000000E-01
	Si140	Si	-3.863000000000E-01	-4.650000000000E-01	4.335000000000E-01
	Si141	Si	-7.870000000000E-02	3.863000000000E-01	4.335000000000E-01
	Si142	Si	7.870000000000E-02	-3.863000000000E-01	-6.650000000000E-02
	Si143	Si	3.863000000000E-01	4.650000000000E-01	-6.650000000000E-02
	Si144	Si	-4.650000000000E-01	-7.870000000000E-02	-6.650000000000E-02


data_ EWS
_chemical_name_common		'EWS'
_cell_length_a		12.54517584
_cell_length_b		12.54517584
_cell_length_c		17.97626000
_cell_angle_alpha		90.000000
_cell_angle_beta		90.000000
_cell_angle_gamma		101.344976
_space group_name_H-M_alt		'P 1'
_space_group_IT_number		1

loop_
	_atom_site_label
	_atom_site_type_symbol
	_atom_site_fract_x
	_atom_site_fract_y
	_atom_site_fract_z
	Si1	Si	-4.310200000000E-01	-2.679000000000E-01	4.303100000000E-01
	Si2	Si	-6.898000000000E-02	-2.321000000000E-01	-6.969000000000E-02
	Si3	Si	2.679000000000E-01	4.310200000000E-01	-4.303100000000E-01
	Si4	Si	2.321000000000E-01	6.898000000000E-02	6.969000000000E-02
	Si5	Si	4.310200000000E-01	2.679000000000E-01	-4.303100000000E-01
	Si6	Si	6.898000000000E-02	2.321000000000E-01	6.969000000000E-02
	Si7	Si	-2.679000000000E-01	-4.310200000000E-01	4.303100000000E-01
	Si8	Si	-2.321000000000E-01	-6.898000000000E-02	-6.969000000000E-02
	Si9	Si	3.070500000000E-01	-1.533700000000E-01	-3.973100000000E-01
	Si10	Si	1.929500000000E-01	-3.466300000000E-01	1.026900000000E-01
	Si11	Si	1.533700000000E-01	-3.070500000000E-01	3.973100000000E-01
	Si12	Si	3.466300000000E-01	-1.929500000000E-01	-1.026900000000E-01
	Si13	Si	-3.070500000000E-01	1.533700000000E-01	3.973100000000E-01
	Si14	Si	-1.929500000000E-01	3.466300000000E-01	-1.026900000000E-01
	Si15	Si	-1.533700000000E-01	3.070500000000E-01	-3.973100000000E-01
	Si16	Si	-3.466300000000E-01	1.929500000000E-01	1.026900000000E-01
	Si17	Si	3.833000000000E-01	3.454000000000E-02	-4.993600000000E-01
	Si18	Si	1.167000000000E-01	4.654600000000E-01	6.400000000000E-04
	Si19	Si	-3.454000000000E-02	-3.833000000000E-01	4.993600000000E-01
	Si20	Si	-4.654600000000E-01	-1.167000000000E-01	-6.400000000001E-04
	Si21	Si	-3.833000000000E-01	-3.454000000000E-02	4.993600000000E-01
	Si22	Si	-1.167000000000E-01	-4.654600000000E-01	-6.400000000001E-04
	Si23	Si	3.454000000000E-02	3.833000000000E-01	-4.993600000000E-01
	Si24	Si	4.654600000000E-01	1.167000000000E-01	6.400000000000E-04
	Si25	Si	3.029800000000E-01	-8.536000000000E-02	3.564400000000E-01
	Si26	Si	1.970200000000E-01	-4.146400000000E-01	-1.435600000000E-01
	Si27	Si	8.536000000000E-02	-3.029800000000E-01	-3.564400000000E-01
	Si28	Si	4.146400000000E-01	-1.970200000000E-01	1.435600000000E-01
	Si29	Si	-3.029800000000E-01	8.536000000000E-02	-3.564400000000E-01
	Si30	Si	-1.970200000000E-01	4.146400000000E-01	1.435600000000E-01
	Si31	Si	-8.536000000000E-02	3.029800000000E-01	3.564400000000E-01
	Si32	Si	-4.146400000000E-01	1.970200000000E-01	-1.435600000000E-01
	Si33	Si	-4.899300000000E-01	-1.604700000000E-01	2.934700000000E-01
	Si34	Si	-1.007000000000E-02	-3.395300000000E-01	-2.065300000000E-01
	Si35	Si	1.604700000000E-01	4.899300000000E-01	-2.934700000000E-01
	Si36	Si	3.395300000000E-01	1.007000000000E-02	2.065300000000E-01
	Si37	Si	4.899300000000E-01	1.604700000000E-01	-2.934700000000E-01
	Si38	Si	1.007000000000E-02	3.395300000000E-01	2.065300000000E-01
	Si39	Si	-1.604700000000E-01	-4.899300000000E-01	2.934700000000E-01
	Si40	Si	-3.395300000000E-01	-1.007000000000E-02	-2.065300000000E-01
	Si41	Si	-4.236200000000E-01	7.638000000000E-02	2.500000000000E-01
	Si42	Si	-7.638000000000E-02	4.236200000000E-01	-2.500000000000E-01
	Si43	Si	4.236200000000E-01	-7.638000000000E-02	-2.500000000000E-01
	Si44	Si	7.638000000000E-02	-4.236200000000E-01	2.500000000000E-01
	Si45	Si	3.427200000000E-01	-3.427200000000E-01	-5.000000000000E-01
	Si46	Si	1.572800000000E-01	-1.572800000000E-01	0.000000000000E+00
	Si47	Si	-3.427200000000E-01	3.427200000000E-01	-5.000000000000E-01
	Si48	Si	-1.572800000000E-01	1.572800000000E-01	0.000000000000E+00
	O49	O	-4.216100000000E-01	-2.280500000000E-01	3.449100000000E-01
	O50	O	-7.839000000000E-02	-2.719500000000E-01	-1.550900000000E-01
	O51	O	2.280500000000E-01	4.216100000000E-01	-3.449100000000E-01
	O52	O	2.719500000000E-01	7.839000000000E-02	1.550900000000E-01
	O53	O	4.216100000000E-01	2.280500000000E-01	-3.449100000000E-01
	O54	O	7.839000000000E-02	2.719500000000E-01	1.550900000000E-01
	O55	O	-2.280500000000E-01	-4.216100000000E-01	3.449100000000E-01
	O56	O	-2.719500000000E-01	-7.839000000000E-02	-1.550900000000E-01
	O57	O	-4.003100000000E-01	-1.630100000000E-01	4.834600000000E-01
	O58	O	-9.969000000000E-02	-3.369900000000E-01	-1.654000000000E-02
	O59	O	1.630100000000E-01	4.003100000000E-01	-4.834600000000E-01
	O60	O	3.369900000000E-01	9.969000000000E-02	1.654000000000E-02
	O61	O	4.003100000000E-01	1.630100000000E-01	-4.834600000000E-01
	O62	O	9.969000000000E-02	3.369900000000E-01	1.654000000000E-02
	O63	O	-1.630100000000E-01	-4.003100000000E-01	4.834600000000E-01
	O64	O	-3.369900000000E-01	-9.969000000000E-02	-1.654000000000E-02
	O65	O	4.472100000000E-01	-3.330300000000E-01	4.465900000000E-01
	O66	O	5.279000000000E-02	-1.669700000000E-01	-5.341000000000E-02
	O67	O	3.330300000000E-01	-4.472100000000E-01	-4.465900000000E-01
	O68	O	1.669700000000E-01	-5.279000000000E-02	5.341000000000E-02
	O69	O	-4.472100000000E-01	3.330300000000E-01	-4.465900000000E-01
	O70	O	-5.279000000000E-02	1.669700000000E-01	5.341000000000E-02
	O71	O	-3.330300000000E-01	4.472100000000E-01	4.465900000000E-01
	O72	O	-1.669700000000E-01	5.279000000000E-02	-5.341000000000E-02
	O73	O	-3.469100000000E-01	-3.469100000000E-01	4.458800000000E-01
	O74	O	-1.530900000000E-01	-1.530900000000E-01	-5.412000000000E-02
	O75	O	3.469100000000E-01	3.469100000000E-01	-4.458800000000E-01
	O76	O	1.530900000000E-01	1.530900000000E-01	5.412000000000E-02
	O77	O	2.318000000000E-01	-3.565800000000E-01	4.528200000000E-01
	O78	O	2.682000000000E-01	-1.434200000000E-01	-4.718000000000E-02
	O79	O	3.565800000000E-01	-2.318000000000E-01	-4.528200000000E-01
	O80	O	1.434200000000E-01	-2.682000000000E-01	4.718000000000E-02
	O81	O	-2.318000000000E-01	3.565800000000E-01	-4.528200000000E-01
	O82	O	-2.682000000000E-01	1.434200000000E-01	4.718000000000E-02
	O83	O	-3.565800000000E-01	2.318000000000E-01	4.528200000000E-01
	O84	O	-1.434200000000E-01	2.682000000000E-01	-4.718000000000E-02
	O85	O	3.144600000000E-01	-3.490000000000E-02	-4.338500000000E-01
	O86	O	1.855400000000E-01	-4.651000000000E-01	6.615000000000E-02
	O87	O	3.490000000000E-02	-3.144600000000E-01	4.338500000000E-01
	O88	O	4.651000000000E-01	-1.855400000000E-01	-6.615000000000E-02
	O89	O	-3.144600000000E-01	3.490000000000E-02	4.338500000000E-01
	O90	O	-1.855400000000E-01	4.651000000000E-01	-6.615000000000E-02
	O91	O	-3.490000000000E-02	3.144600000000E-01	-4.338500000000E-01
	O92	O	-4.651000000000E-01	1.855400000000E-01	6.615000000000E-02
	O93	O	1.812900000000E-01	-2.042300000000E-01	-3.808800000000E-01
	O94	O	3.187100000000E-01	-2.957700000000E-01	1.191200000000E-01
	O95	O	2.042300000000E-01	-1.812900000000E-01	3.808800000000E-01
	O96	O	2.957700000000E-01	-3.187100000000E-01	-1.191200000000E-01
	O97	O	-1.812900000000E-01	2.042300000000E-01	3.808800000000E-01
	O98	O	-3.187100000000E-01	2.957700000000E-01	-1.191200000000E-01
	O99	O	-2.042300000000E-01	1.812900000000E-01	-3.808800000000E-01
	O100	O	-2.957700000000E-01	3.187100000000E-01	1.191200000000E-01
	O101	O	3.768900000000E-01	-1.469700000000E-01	-3.217800000000E-01
	O102	O	1.231100000000E-01	-3.530300000000E-01	1.782200000000E-01
	O103	O	1.469700000000E-01	-3.768900000000E-01	3.217800000000E-01
	O104	O	3.530300000000E-01	-1.231100000000E-01	-1.782200000000E-01
	O105	O	-3.768900000000E-01	1.469700000000E-01	3.217800000000E-01
	O106	O	-1.231100000000E-01	3.530300000000E-01	-1.782200000000E-01
	O107	O	-1.469700000000E-01	3.768900000000E-01	-3.217800000000E-01
	O108	O	-3.530300000000E-01	1.231100000000E-01	1.782200000000E-01
	O109	O	4.520100000000E-01	8.475000000000E-02	2.340700000000E-01
	O110	O	4.799000000000E-02	4.152500000000E-01	-2.659300000000E-01
	O111	O	-8.475000000000E-02	-4.520100000000E-01	-2.340700000000E-01
	O112	O	-4.152500000000E-01	-4.799000000000E-02	2.659300000000E-01
	O113	O	-4.520100000000E-01	-8.475000000000E-02	-2.340700000000E-01
	O114	O	-4.799000000000E-02	-4.152500000000E-01	2.659300000000E-01
	O115	O	8.475000000000E-02	4.520100000000E-01	2.340700000000E-01
	O116	O	4.152500000000E-01	4.799000000000E-02	-2.659300000000E-01
	O117	O	3.254600000000E-01	4.780000000000E-03	4.213000000000E-01
	O118	O	1.745400000000E-01	4.952200000000E-01	-7.870000000000E-02
	O119	O	-4.780000000000E-03	-3.254600000000E-01	-4.213000000000E-01
	O120	O	-4.952200000000E-01	-1.745400000000E-01	7.870000000000E-02
	O121	O	-3.254600000000E-01	-4.780000000000E-03	-4.213000000000E-01
	O122	O	-1.745400000000E-01	-4.952200000000E-01	7.870000000000E-02
	O123	O	4.780000000000E-03	3.254600000000E-01	4.213000000000E-01
	O124	O	4.952200000000E-01	1.745400000000E-01	-7.870000000000E-02
	O125	O	-5.000000000000E-01	-1.160993022033E-17	-5.000000000000E-01
	O126	O	2.176443595510E-16	-5.000000000000E-01	0.000000000000E+00
	O127	O	1.794806660688E-17	-5.000000000000E-01	-5.000000000000E-01
	O128	O	-5.000000000000E-01	-1.160993022033E-17	0.000000000000E+00
	O129	O	2.704600000000E-01	-3.334000000000E-02	2.797700000000E-01
	O130	O	2.295400000000E-01	-4.666600000000E-01	-2.202300000000E-01
	O131	O	3.334000000000E-02	-2.704600000000E-01	-2.797700000000E-01
	O132	O	4.666600000000E-01	-2.295400000000E-01	2.202300000000E-01
	O133	O	-2.704600000000E-01	3.334000000000E-02	-2.797700000000E-01
	O134	O	-2.295400000000E-01	4.666600000000E-01	2.202300000000E-01
	O135	O	-3.334000000000E-02	2.704600000000E-01	2.797700000000E-01
	O136	O	-4.666600000000E-01	2.295400000000E-01	-2.202300000000E-01
	O137	O	4.099300000000E-01	-1.352100000000E-01	3.418200000000E-01
	O138	O	9.007000000000E-02	-3.647900000000E-01	-1.581800000000E-01
	O139	O	1.352100000000E-01	-4.099300000000E-01	-3.418200000000E-01
	O140	O	3.647900000000E-01	-9.007000000000E-02	1.581800000000E-01
	O141	O	-4.099300000000E-01	1.352100000000E-01	-3.418200000000E-01
	O142	O	-9.007000000000E-02	3.647900000000E-01	1.581800000000E-01
	O143	O	-1.352100000000E-01	4.099300000000E-01	3.418200000000E-01
	O144	O	-3.647900000000E-01	9.007000000000E-02	-1.581800000000E-01


data_ EZT
_chemical_name_common		'EZT'
_cell_length_a		13.54663927
_cell_length_b		13.54663927
_cell_length_c		13.54663927
_cell_angle_alpha		135.618024
_cell_angle_beta		124.772358
_cell_angle_gamma		73.440549
_space group_name_H-M_alt		'P 1'
_space_group_IT_number		1

loop_
	_atom_site_label
	_atom_site_type_symbol
	_atom_site_fract_x
	_atom_site_fract_y
	_atom_site_fract_z
	O1	O	-4.951000000000E-01	2.472000000000E-01	-3.563000000000E-01
	O2	O	1.035000000000E-01	-1.388000000000E-01	-1.437000000000E-01
	O3	O	4.951000000000E-01	1.388000000000E-01	-2.577000000000E-01
	O4	O	-1.035000000000E-01	-2.472000000000E-01	-2.423000000000E-01
	O5	O	4.951000000000E-01	-2.472000000000E-01	3.563000000000E-01
	O6	O	-1.035000000000E-01	1.388000000000E-01	1.437000000000E-01
	O7	O	-4.951000000000E-01	-1.388000000000E-01	2.577000000000E-01
	O8	O	1.035000000000E-01	2.472000000000E-01	2.423000000000E-01
	O9	O	-4.906000000000E-01	-4.973000000000E-01	-2.507000000000E-01
	O10	O	2.534000000000E-01	-2.399000000000E-01	-2.493000000000E-01
	O11	O	4.906000000000E-01	2.399000000000E-01	-6.700000000000E-03
	O12	O	-2.534000000000E-01	4.973000000000E-01	-4.933000000000E-01
	O13	O	4.906000000000E-01	4.973000000000E-01	2.507000000000E-01
	O14	O	-2.534000000000E-01	2.399000000000E-01	2.493000000000E-01
	O15	O	-4.906000000000E-01	-2.399000000000E-01	6.700000000000E-03
	O16	O	2.534000000000E-01	-4.973000000000E-01	4.933000000000E-01
	O17	O	-4.293000000000E-01	2.965000000000E-01	-4.688000000000E-01
	O18	O	2.653000000000E-01	3.950000000000E-02	-3.120000000000E-02
	O19	O	4.293000000000E-01	-3.950000000000E-02	-2.742000000000E-01
	O20	O	-2.653000000000E-01	-2.965000000000E-01	-2.258000000000E-01
	O21	O	4.293000000000E-01	-2.965000000000E-01	4.688000000000E-01
	O22	O	-2.653000000000E-01	-3.950000000000E-02	3.120000000000E-02
	O23	O	-4.293000000000E-01	3.950000000000E-02	2.742000000000E-01
	O24	O	2.653000000000E-01	2.965000000000E-01	2.258000000000E-01
	O25	O	3.405000000000E-01	2.795000000000E-01	4.390000000000E-01
	O26	O	3.405000000000E-01	-9.850000000000E-02	6.100000000000E-02
	O27	O	-3.405000000000E-01	9.850000000000E-02	-6.100000000000E-02
	O28	O	-3.405000000000E-01	-2.795000000000E-01	-4.390000000000E-01
	O29	O	7.110000000000E-02	-3.707000000000E-01	4.418000000000E-01
	O30	O	-3.125000000000E-01	-3.707000000000E-01	5.820000000000E-02
	O31	O	-7.110000000000E-02	3.707000000000E-01	-4.418000000000E-01
	O32	O	3.125000000000E-01	3.707000000000E-01	-5.820000000000E-02
	O33	O	2.867000000000E-01	-2.702000000000E-01	-4.431000000000E-01
	O34	O	-3.271000000000E-01	-2.702000000000E-01	-5.690000000000E-02
	O35	O	-2.867000000000E-01	2.702000000000E-01	4.431000000000E-01
	O36	O	3.271000000000E-01	2.702000000000E-01	5.690000000000E-02
	O37	O	-4.751000000000E-01	-2.251000000000E-01	-2.500000000000E-01
	O38	O	4.751000000000E-01	2.251000000000E-01	2.500000000000E-01
	O39	O	3.788000000000E-01	-3.988000000000E-01	3.420000000000E-02
	O40	O	6.700000000000E-02	3.446000000000E-01	4.658000000000E-01
	O41	O	-3.788000000000E-01	-3.446000000000E-01	2.224000000000E-01
	O42	O	-6.700000000000E-02	3.988000000000E-01	2.776000000000E-01
	O43	O	-3.788000000000E-01	3.988000000000E-01	-3.420000000000E-02
	O44	O	-6.700000000000E-02	-3.446000000000E-01	-4.658000000000E-01
	O45	O	3.788000000000E-01	3.446000000000E-01	-2.224000000000E-01
	O46	O	6.700000000000E-02	-3.988000000000E-01	-2.776000000000E-01
	O47	O	1.679000000000E-01	4.179000000000E-01	-2.500000000000E-01
	O48	O	-1.679000000000E-01	-4.179000000000E-01	2.500000000000E-01
	Si49	Si	4.816000000000E-01	3.312000000000E-01	-4.088000000000E-01
	Si50	Si	2.400000000000E-01	-1.096000000000E-01	-9.120000000000E-02
	Si51	Si	-4.816000000000E-01	1.096000000000E-01	-1.504000000000E-01
	Si52	Si	-2.400000000000E-01	-3.312000000000E-01	-3.496000000000E-01
	Si53	Si	-4.816000000000E-01	-3.312000000000E-01	4.088000000000E-01
	Si54	Si	-2.400000000000E-01	1.096000000000E-01	9.120000000000E-02
	Si55	Si	4.816000000000E-01	-1.096000000000E-01	1.504000000000E-01
	Si56	Si	2.400000000000E-01	3.312000000000E-01	3.496000000000E-01
	Si57	Si	2.174000000000E-01	-3.442000000000E-01	-4.384000000000E-01
	Si58	Si	-4.058000000000E-01	-3.442000000000E-01	-6.160000000000E-02
	Si59	Si	-2.174000000000E-01	3.442000000000E-01	4.384000000000E-01
	Si60	Si	4.058000000000E-01	3.442000000000E-01	6.160000000000E-02
	Si61	Si	-3.331000000000E-01	-2.075000000000E-01	-1.256000000000E-01
	Si62	Si	4.181000000000E-01	-2.075000000000E-01	-3.744000000000E-01
	Si63	Si	3.331000000000E-01	2.075000000000E-01	1.256000000000E-01
	Si64	Si	-4.181000000000E-01	2.075000000000E-01	3.744000000000E-01
	Si65	Si	3.090000000000E-01	4.340000000000E-01	-1.250000000000E-01
	Si66	Si	5.900000000000E-02	4.340000000000E-01	-3.750000000000E-01
	Si67	Si	-3.090000000000E-01	-4.340000000000E-01	1.250000000000E-01
	Si68	Si	-5.900000000000E-02	-4.340000000000E-01	3.750000000000E-01
	Si69	Si	-2.730279102972E-17	-2.818000000000E-01	-2.818000000000E-01
	Si70	Si	-5.000000000000E-01	2.818000000000E-01	-2.182000000000E-01
	Si71	Si	-1.337198771401E-18	2.818000000000E-01	2.818000000000E-01
	Si72	Si	5.000000000000E-01	-2.818000000000E-01	2.182000000000E-01


data_ FAU
_chemical_name_common		'FAU'
_cell_length_a		17.21451459
_cell_length_b		17.21451459
_cell_length_c		17.21451459
_cell_angle_alpha		60.000000
_cell_angle_beta		60.000000
_cell_angle_gamma		60.000000
_space group_name_H-M_alt		'P 1'
_space_group_IT_number		1

loop_
	_atom_site_label
	_atom_site_type_symbol
	_atom_site_fract_x
	_atom_site_fract_y
	_atom_site_fract_z
	O1	O	2.084000000000E-01	-2.084000000000E-01	1.327595394656E-17
	O2	O	-2.084000000000E-01	2.084000000000E-01	-5.000000000000E-01
	O3	O	-5.000000000000E-01	3.185209680076E-17	-2.084000000000E-01
	O4	O	9.821960723744E-17	-5.000000000000E-01	2.084000000000E-01
	O5	O	-3.057029192010E-17	2.084000000000E-01	-2.084000000000E-01
	O6	O	-2.084000000000E-01	-2.494085931116E-17	2.084000000000E-01
	O7	O	2.084000000000E-01	-8.242895907182E-18	-5.000000000000E-01
	O8	O	2.084000000000E-01	-5.000000000000E-01	-2.084000000000E-01
	O9	O	-5.000000000000E-01	-2.084000000000E-01	2.084000000000E-01
	O10	O	-1.106307150334E-17	-2.084000000000E-01	-5.000000000000E-01
	O11	O	-2.084000000000E-01	-5.000000000000E-01	1.782290952363E-17
	O12	O	-5.000000000000E-01	2.084000000000E-01	-3.446556009900E-17
	O13	O	-2.084000000000E-01	2.084000000000E-01	-1.327595394656E-17
	O14	O	2.084000000000E-01	-2.084000000000E-01	-5.000000000000E-01
	O15	O	-5.000000000000E-01	-2.365905443050E-17	2.084000000000E-01
	O16	O	3.185209680076E-17	-5.000000000000E-01	-2.084000000000E-01
	O17	O	3.057029192010E-17	-2.084000000000E-01	2.084000000000E-01
	O18	O	2.084000000000E-01	2.494085931116E-17	-2.084000000000E-01
	O19	O	-2.084000000000E-01	2.514211231739E-17	-5.000000000000E-01
	O20	O	-2.084000000000E-01	-5.000000000000E-01	2.084000000000E-01
	O21	O	-5.000000000000E-01	2.084000000000E-01	-2.084000000000E-01
	O22	O	1.082075861580E-16	2.084000000000E-01	-5.000000000000E-01
	O23	O	2.084000000000E-01	-5.000000000000E-01	-3.446556009900E-17
	O24	O	-5.000000000000E-01	-2.084000000000E-01	-1.483057886893E-18
	O25	O	1.855000000000E-01	-3.310000000000E-02	-3.310000000000E-02
	O26	O	-3.310000000000E-02	1.855000000000E-01	3.807000000000E-01
	O27	O	3.807000000000E-01	-3.310000000000E-02	-3.310000000000E-02
	O28	O	-3.310000000000E-02	3.807000000000E-01	1.855000000000E-01
	O29	O	-3.310000000000E-02	1.855000000000E-01	-3.310000000000E-02
	O30	O	-3.310000000000E-02	-3.310000000000E-02	1.855000000000E-01
	O31	O	1.855000000000E-01	-3.310000000000E-02	3.807000000000E-01
	O32	O	1.855000000000E-01	3.807000000000E-01	-3.310000000000E-02
	O33	O	3.807000000000E-01	-3.310000000000E-02	1.855000000000E-01
	O34	O	-3.310000000000E-02	-3.310000000000E-02	3.807000000000E-01
	O35	O	-3.310000000000E-02	3.807000000000E-01	-3.310000000000E-02
	O36	O	3.807000000000E-01	1.855000000000E-01	-3.310000000000E-02
	O37	O	3.310000000000E-02	-1.855000000000E-01	3.310000000000E-02
	O38	O	-1.855000000000E-01	3.310000000000E-02	-3.807000000000E-01
	O39	O	3.310000000000E-02	-3.807000000000E-01	3.310000000000E-02
	O40	O	-3.807000000000E-01	3.310000000000E-02	-1.855000000000E-01
	O41	O	-1.855000000000E-01	3.310000000000E-02	3.310000000000E-02
	O42	O	3.310000000000E-02	3.310000000000E-02	-1.855000000000E-01
	O43	O	3.310000000000E-02	-1.855000000000E-01	-3.807000000000E-01
	O44	O	-3.807000000000E-01	-1.855000000000E-01	3.310000000000E-02
	O45	O	3.310000000000E-02	-3.807000000000E-01	-1.855000000000E-01
	O46	O	3.310000000000E-02	3.310000000000E-02	-3.807000000000E-01
	O47	O	-3.807000000000E-01	3.310000000000E-02	3.310000000000E-02
	O48	O	-1.855000000000E-01	-3.807000000000E-01	3.310000000000E-02
	O49	O	1.429000000000E-01	-1.497000000000E-01	1.429000000000E-01
	O50	O	-1.497000000000E-01	1.429000000000E-01	3.639000000000E-01
	O51	O	3.639000000000E-01	1.429000000000E-01	-1.497000000000E-01
	O52	O	1.429000000000E-01	3.639000000000E-01	1.429000000000E-01
	O53	O	1.429000000000E-01	1.429000000000E-01	-1.497000000000E-01
	O54	O	-1.497000000000E-01	1.429000000000E-01	1.429000000000E-01
	O55	O	1.429000000000E-01	1.429000000000E-01	3.639000000000E-01
	O56	O	1.429000000000E-01	3.639000000000E-01	-1.497000000000E-01
	O57	O	3.639000000000E-01	-1.497000000000E-01	1.429000000000E-01
	O58	O	1.429000000000E-01	-1.497000000000E-01	3.639000000000E-01
	O59	O	-1.497000000000E-01	3.639000000000E-01	1.429000000000E-01
	O60	O	3.639000000000E-01	1.429000000000E-01	1.429000000000E-01
	O61	O	1.497000000000E-01	-1.429000000000E-01	-1.429000000000E-01
	O62	O	-1.429000000000E-01	1.497000000000E-01	-3.639000000000E-01
	O63	O	-1.429000000000E-01	-3.639000000000E-01	1.497000000000E-01
	O64	O	-3.639000000000E-01	-1.429000000000E-01	-1.429000000000E-01
	O65	O	-1.429000000000E-01	-1.429000000000E-01	1.497000000000E-01
	O66	O	-1.429000000000E-01	1.497000000000E-01	-1.429000000000E-01
	O67	O	-1.429000000000E-01	-1.429000000000E-01	-3.639000000000E-01
	O68	O	-3.639000000000E-01	-1.429000000000E-01	1.497000000000E-01
	O69	O	1.497000000000E-01	-3.639000000000E-01	-1.429000000000E-01
	O70	O	1.497000000000E-01	-1.429000000000E-01	-3.639000000000E-01
	O71	O	-3.639000000000E-01	1.497000000000E-01	-1.429000000000E-01
	O72	O	-1.429000000000E-01	-3.639000000000E-01	-1.429000000000E-01
	O73	O	3.217000000000E-01	-1.757000000000E-01	3.230000000000E-02
	O74	O	-1.757000000000E-01	3.217000000000E-01	3.217000000000E-01
	O75	O	3.217000000000E-01	3.230000000000E-02	-1.757000000000E-01
	O76	O	3.230000000000E-02	3.217000000000E-01	3.217000000000E-01
	O77	O	3.230000000000E-02	3.217000000000E-01	-1.757000000000E-01
	O78	O	-1.757000000000E-01	3.230000000000E-02	3.217000000000E-01
	O79	O	3.217000000000E-01	3.230000000000E-02	3.217000000000E-01
	O80	O	3.217000000000E-01	3.217000000000E-01	-1.757000000000E-01
	O81	O	3.217000000000E-01	-1.757000000000E-01	3.217000000000E-01
	O82	O	3.230000000000E-02	-1.757000000000E-01	3.217000000000E-01
	O83	O	-1.757000000000E-01	3.217000000000E-01	3.230000000000E-02
	O84	O	3.217000000000E-01	3.217000000000E-01	3.230000000000E-02
	O85	O	1.757000000000E-01	-3.217000000000E-01	-3.230000000000E-02
	O86	O	-3.217000000000E-01	1.757000000000E-01	-3.217000000000E-01
	O87	O	-3.230000000000E-02	-3.217000000000E-01	1.757000000000E-01
	O88	O	-3.217000000000E-01	-3.230000000000E-02	-3.217000000000E-01
	O89	O	-3.217000000000E-01	-3.230000000000E-02	1.757000000000E-01
	O90	O	-3.230000000000E-02	1.757000000000E-01	-3.217000000000E-01
	O91	O	-3.230000000000E-02	-3.217000000000E-01	-3.217000000000E-01
	O92	O	-3.217000000000E-01	-3.217000000000E-01	1.757000000000E-01
	O93	O	1.757000000000E-01	-3.217000000000E-01	-3.217000000000E-01
	O94	O	1.757000000000E-01	-3.230000000000E-02	-3.217000000000E-01
	O95	O	-3.217000000000E-01	1.757000000000E-01	-3.230000000000E-02
	O96	O	-3.217000000000E-01	-3.217000000000E-01	-3.230000000000E-02
	Si97	Si	2.146000000000E-01	-1.418000000000E-01	3.560000000000E-02
	Si98	Si	-1.418000000000E-01	2.146000000000E-01	3.916000000000E-01
	Si99	Si	3.916000000000E-01	3.560000000000E-02	-1.418000000000E-01
	Si100	Si	3.560000000000E-02	3.916000000000E-01	2.146000000000E-01
	Si101	Si	3.560000000000E-02	2.146000000000E-01	-1.418000000000E-01
	Si102	Si	-1.418000000000E-01	3.560000000000E-02	2.146000000000E-01
	Si103	Si	2.146000000000E-01	3.560000000000E-02	3.916000000000E-01
	Si104	Si	2.146000000000E-01	3.916000000000E-01	-1.418000000000E-01
	Si105	Si	3.916000000000E-01	-1.418000000000E-01	2.146000000000E-01
	Si106	Si	3.560000000000E-02	-1.418000000000E-01	3.916000000000E-01
	Si107	Si	-1.418000000000E-01	3.916000000000E-01	3.560000000000E-02
	Si108	Si	3.916000000000E-01	2.146000000000E-01	3.560000000000E-02
	Si109	Si	1.418000000000E-01	-2.146000000000E-01	-3.560000000000E-02
	Si110	Si	-2.146000000000E-01	1.418000000000E-01	-3.916000000000E-01
	Si111	Si	-3.560000000000E-02	-3.916000000000E-01	1.418000000000E-01
	Si112	Si	-3.916000000000E-01	-3.560000000000E-02	-2.146000000000E-01
	Si113	Si	-2.146000000000E-01	-3.560000000000E-02	1.418000000000E-01
	Si114	Si	-3.560000000000E-02	1.418000000000E-01	-2.146000000000E-01
	Si115	Si	-3.560000000000E-02	-2.146000000000E-01	-3.916000000000E-01
	Si116	Si	-3.916000000000E-01	-2.146000000000E-01	1.418000000000E-01
	Si117	Si	1.418000000000E-01	-3.916000000000E-01	-2.146000000000E-01
	Si118	Si	1.418000000000E-01	-3.560000000000E-02	-3.916000000000E-01
	Si119	Si	-3.916000000000E-01	1.418000000000E-01	-3.560000000000E-02
	Si120	Si	-2.146000000000E-01	-3.916000000000E-01	-3.560000000000E-02
	Si121	Si	-2.146000000000E-01	1.418000000000E-01	-3.560000000000E-02
	Si122	Si	1.418000000000E-01	-2.146000000000E-01	-3.916000000000E-01
	Si123	Si	-3.916000000000E-01	-3.560000000000E-02	1.418000000000E-01
	Si124	Si	-3.560000000000E-02	-3.916000000000E-01	-2.146000000000E-01
	Si125	Si	-3.560000000000E-02	-2.146000000000E-01	1.418000000000E-01
	Si126	Si	1.418000000000E-01	-3.560000000000E-02	-2.146000000000E-01
	Si127	Si	-2.146000000000E-01	-3.560000000000E-02	-3.916000000000E-01
	Si128	Si	-2.146000000000E-01	-3.916000000000E-01	1.418000000000E-01
	Si129	Si	-3.916000000000E-01	1.418000000000E-01	-2.146000000000E-01
	Si130	Si	-3.560000000000E-02	1.418000000000E-01	-3.916000000000E-01
	Si131	Si	1.418000000000E-01	-3.916000000000E-01	-3.560000000000E-02
	Si132	Si	-3.916000000000E-01	-2.146000000000E-01	-3.560000000000E-02
	Si133	Si	-1.418000000000E-01	2.146000000000E-01	3.560000000000E-02
	Si134	Si	2.146000000000E-01	-1.418000000000E-01	3.916000000000E-01
	Si135	Si	3.560000000000E-02	3.916000000000E-01	-1.418000000000E-01
	Si136	Si	3.916000000000E-01	3.560000000000E-02	2.146000000000E-01
	Si137	Si	2.146000000000E-01	3.560000000000E-02	-1.418000000000E-01
	Si138	Si	3.560000000000E-02	-1.418000000000E-01	2.146000000000E-01
	Si139	Si	3.560000000000E-02	2.146000000000E-01	3.916000000000E-01
	Si140	Si	3.916000000000E-01	2.146000000000E-01	-1.418000000000E-01
	Si141	Si	-1.418000000000E-01	3.916000000000E-01	2.146000000000E-01
	Si142	Si	-1.418000000000E-01	3.560000000000E-02	3.916000000000E-01
	Si143	Si	3.916000000000E-01	-1.418000000000E-01	3.560000000000E-02
	Si144	Si	2.146000000000E-01	3.916000000000E-01	3.560000000000E-02


data_ FER
_chemical_name_common		'FER'
_cell_length_a		12.48125408
_cell_length_b		24.96250817
_cell_length_c		12.48125408
_cell_angle_alpha		80.742656
_cell_angle_beta		110.083515
_cell_angle_gamma		144.833281
_space group_name_H-M_alt		'P 1'
_space_group_IT_number		1

loop_
	_atom_site_label
	_atom_site_type_symbol
	_atom_site_fract_x
	_atom_site_fract_y
	_atom_site_fract_z
	O1	O	3.419000000000E-01	2.851000000000E-01	4.119000000000E-01
	O2	O	1.583000000000E-01	-3.500000000000E-02	-4.119000000000E-01
	O3	O	-3.419000000000E-01	3.500000000000E-02	2.283000000000E-01
	O4	O	-1.583000000000E-01	-2.851000000000E-01	-2.283000000000E-01
	O5	O	-3.419000000000E-01	-2.851000000000E-01	-4.119000000000E-01
	O6	O	-1.583000000000E-01	3.500000000000E-02	4.119000000000E-01
	O7	O	3.419000000000E-01	-3.500000000000E-02	-2.283000000000E-01
	O8	O	1.583000000000E-01	2.851000000000E-01	2.283000000000E-01
	O9	O	-4.250000000000E-01	-1.447500000000E-01	-3.659000000000E-01
	O10	O	7.640000000000E-02	-2.955000000000E-02	3.659000000000E-01
	O11	O	4.250000000000E-01	2.955000000000E-02	1.355000000000E-01
	O12	O	-7.640000000000E-02	1.447500000000E-01	-1.355000000000E-01
	O13	O	4.250000000000E-01	1.447500000000E-01	3.659000000000E-01
	O14	O	-7.640000000000E-02	2.955000000000E-02	-3.659000000000E-01
	O15	O	-4.250000000000E-01	-2.955000000000E-02	-1.355000000000E-01
	O16	O	7.640000000000E-02	-1.447500000000E-01	1.355000000000E-01
	O17	O	2.162000000000E-01	-3.285500000000E-01	-4.409000000000E-01
	O18	O	-2.162000000000E-01	-1.714500000000E-01	4.409000000000E-01
	O19	O	-2.162000000000E-01	-3.285500000000E-01	1.267000000000E-01
	O20	O	2.162000000000E-01	-1.714500000000E-01	-1.267000000000E-01
	O21	O	5.000000000000E-01	2.500000000000E-01	5.000000000000E-01
	O22	O	-1.638397427698E-17	-3.291253353988E-17	5.000000000000E-01
	O23	O	-5.000000000000E-01	1.903474573207E-17	-7.004408813824E-17
	O24	O	1.638397427698E-17	2.500000000000E-01	5.346349848928E-17
	O25	O	9.180000000000E-02	5.315000000000E-02	1.981000000000E-01
	O26	O	-9.180000000000E-02	-5.315000000000E-02	-1.981000000000E-01
	O27	O	-9.180000000000E-02	5.315000000000E-02	1.450000000000E-02
	O28	O	9.180000000000E-02	-5.315000000000E-02	-1.450000000000E-02
	O29	O	2.094000000000E-01	-2.000945244753E-17	2.094000000000E-01
	O30	O	-2.094000000000E-01	7.652638465799E-18	-2.094000000000E-01
	O31	O	1.743000000000E-01	1.892000000000E-01	2.041000000000E-01
	O32	O	1.743000000000E-01	-1.490000000000E-02	-2.041000000000E-01
	O33	O	-1.743000000000E-01	1.490000000000E-02	2.041000000000E-01
	O34	O	-1.743000000000E-01	-1.892000000000E-01	-2.041000000000E-01
	O35	O	-5.000000000000E-01	-1.235500000000E-01	2.529000000000E-01
	O36	O	-5.000000000000E-01	-3.764500000000E-01	-2.529000000000E-01
	Si37	Si	4.082000000000E-01	-2.346000000000E-01	-4.738000000000E-01
	Si38	Si	4.600000000000E-03	-5.900000000000E-02	4.738000000000E-01
	Si39	Si	-4.082000000000E-01	5.900000000000E-02	1.226000000000E-01
	Si40	Si	-4.600000000000E-03	2.346000000000E-01	-1.226000000000E-01
	Si41	Si	-4.082000000000E-01	2.346000000000E-01	4.738000000000E-01
	Si42	Si	-4.600000000000E-03	5.900000000000E-02	-4.738000000000E-01
	Si43	Si	4.082000000000E-01	-5.900000000000E-02	-1.226000000000E-01
	Si44	Si	4.600000000000E-03	-2.346000000000E-01	1.226000000000E-01
	Si45	Si	2.004000000000E-01	4.215000000000E-02	2.847000000000E-01
	Si46	Si	-2.004000000000E-01	-4.215000000000E-02	-2.847000000000E-01
	Si47	Si	-2.004000000000E-01	4.215000000000E-02	-1.161000000000E-01
	Si48	Si	2.004000000000E-01	-4.215000000000E-02	1.161000000000E-01
	Si49	Si	2.935000000000E-01	2.839000000000E-01	2.743000000000E-01
	Si50	Si	2.935000000000E-01	9.600000000000E-03	-2.743000000000E-01
	Si51	Si	-2.935000000000E-01	-9.600000000000E-03	2.743000000000E-01
	Si52	Si	-2.935000000000E-01	-2.839000000000E-01	-2.743000000000E-01
	Si53	Si	-4.451180221141E-18	7.765000000000E-02	1.553000000000E-01
	Si54	Si	-1.282770986382E-17	-7.765000000000E-02	-1.553000000000E-01
	O55	O	-7.640000000000E-02	-4.704500000000E-01	-3.659000000000E-01
	O56	O	9.180000000000E-02	4.468500000000E-01	-1.450000000000E-02
	O57	O	-1.583000000000E-01	2.149000000000E-01	-2.283000000000E-01
	O58	O	2.094000000000E-01	-5.000000000000E-01	2.094000000000E-01
	O59	O	-4.250000000000E-01	4.704500000000E-01	-1.355000000000E-01
	O60	O	-2.094000000000E-01	-5.000000000000E-01	-2.094000000000E-01
	O61	O	1.583000000000E-01	-2.149000000000E-01	2.283000000000E-01
	O62	O	1.743000000000E-01	-3.108000000000E-01	2.041000000000E-01
	O63	O	7.640000000000E-02	3.552500000000E-01	1.355000000000E-01
	O64	O	1.743000000000E-01	4.851000000000E-01	-2.041000000000E-01
	O65	O	3.419000000000E-01	-2.149000000000E-01	4.119000000000E-01
	O66	O	-1.743000000000E-01	-4.851000000000E-01	2.041000000000E-01
	O67	O	2.162000000000E-01	1.714500000000E-01	-4.409000000000E-01
	O68	O	-1.743000000000E-01	3.108000000000E-01	-2.041000000000E-01
	O69	O	-4.250000000000E-01	3.552500000000E-01	-3.659000000000E-01
	O70	O	5.000000000000E-01	3.764500000000E-01	2.529000000000E-01
	O71	O	-2.162000000000E-01	3.285500000000E-01	4.409000000000E-01
	O72	O	5.000000000000E-01	1.235500000000E-01	-2.529000000000E-01
	O73	O	-3.419000000000E-01	2.149000000000E-01	-4.119000000000E-01
	Si74	Si	4.082000000000E-01	2.654000000000E-01	-4.738000000000E-01
	O75	O	-2.162000000000E-01	1.714500000000E-01	1.267000000000E-01
	Si76	Si	4.600000000000E-03	4.410000000000E-01	4.738000000000E-01
	O77	O	7.640000000000E-02	4.704500000000E-01	3.659000000000E-01
	Si78	Si	-4.082000000000E-01	-4.410000000000E-01	1.226000000000E-01
	O79	O	2.162000000000E-01	3.285500000000E-01	-1.267000000000E-01
	Si80	Si	-4.600000000000E-03	-2.654000000000E-01	-1.226000000000E-01
	O81	O	-3.419000000000E-01	-4.650000000000E-01	2.283000000000E-01
	Si82	Si	-4.082000000000E-01	-2.654000000000E-01	4.738000000000E-01
	O83	O	-5.000000000000E-01	-2.500000000000E-01	5.000000000000E-01
	Si84	Si	-4.600000000000E-03	-4.410000000000E-01	-4.738000000000E-01
	O85	O	4.250000000000E-01	-4.704500000000E-01	1.355000000000E-01
	Si86	Si	4.082000000000E-01	4.410000000000E-01	-1.226000000000E-01
	O87	O	-4.253482747638E-17	-5.000000000000E-01	-5.000000000000E-01
	Si88	Si	4.600000000000E-03	2.654000000000E-01	1.226000000000E-01
	O89	O	-1.583000000000E-01	-4.650000000000E-01	4.119000000000E-01
	Si90	Si	2.004000000000E-01	-4.578500000000E-01	2.847000000000E-01
	O91	O	5.000000000000E-01	-5.000000000000E-01	9.239406007157E-17
	Si92	Si	-2.004000000000E-01	4.578500000000E-01	-2.847000000000E-01
	O93	O	-7.640000000000E-02	-3.552500000000E-01	-1.355000000000E-01
	Si94	Si	-2.004000000000E-01	-4.578500000000E-01	-1.161000000000E-01
	O95	O	2.538621093963E-16	-2.500000000000E-01	4.511801097221E-17
	Si96	Si	2.004000000000E-01	4.578500000000E-01	1.161000000000E-01
	O97	O	1.583000000000E-01	4.650000000000E-01	-4.119000000000E-01
	Si98	Si	2.935000000000E-01	-2.161000000000E-01	2.743000000000E-01
	O99	O	9.180000000000E-02	-4.468500000000E-01	1.981000000000E-01
	Si100	Si	2.935000000000E-01	-4.904000000000E-01	-2.743000000000E-01
	O101	O	4.250000000000E-01	-3.552500000000E-01	3.659000000000E-01
	Si102	Si	-2.935000000000E-01	4.904000000000E-01	2.743000000000E-01
	O103	O	-9.180000000000E-02	4.468500000000E-01	-1.981000000000E-01
	Si104	Si	-2.935000000000E-01	2.161000000000E-01	-2.743000000000E-01
	O105	O	3.419000000000E-01	4.650000000000E-01	-2.283000000000E-01
	Si106	Si	3.207448619662E-16	-4.223500000000E-01	1.553000000000E-01
	O107	O	-9.180000000000E-02	-4.468500000000E-01	1.450000000000E-02
	Si108	Si	-1.960919574153E-16	4.223500000000E-01	-1.553000000000E-01


data_ GON
_chemical_name_common		'GON'
_cell_length_a		26.07075421
_cell_length_b		13.03537710
_cell_length_c		5.08000000
_cell_angle_alpha		90.000000
_cell_angle_beta		90.000000
_cell_angle_gamma		78.527786
_space group_name_H-M_alt		'P 1'
_space_group_IT_number		1

loop_
	_atom_site_label
	_atom_site_type_symbol
	_atom_site_fract_x
	_atom_site_fract_y
	_atom_site_fract_z
	O1	O	2.648000000000E-01	-1.620000000000E-01	-1.294000000000E-01
	O2	O	-2.648000000000E-01	1.620000000000E-01	-1.294000000000E-01
	O3	O	8.100000000000E-02	4.704000000000E-01	1.294000000000E-01
	O4	O	-8.100000000000E-02	-4.704000000000E-01	1.294000000000E-01
	O5	O	-2.069500000000E-01	-1.877000000000E-01	3.697000000000E-01
	O6	O	2.069500000000E-01	1.877000000000E-01	3.697000000000E-01
	O7	O	9.385000000000E-02	4.139000000000E-01	-3.697000000000E-01
	O8	O	-9.385000000000E-02	-4.139000000000E-01	-3.697000000000E-01
	O9	O	2.500000000000E-01	-3.860495578097E-17	-4.541000000000E-01
	O10	O	3.982326499371E-18	-5.000000000000E-01	4.541000000000E-01
	O11	O	1.926000000000E-01	-1.448000000000E-01	-4.972000000000E-01
	O12	O	-1.926000000000E-01	1.448000000000E-01	-4.972000000000E-01
	O13	O	7.240000000000E-02	-3.852000000000E-01	4.972000000000E-01
	O14	O	-7.240000000000E-02	3.852000000000E-01	4.972000000000E-01
	O15	O	1.207500000000E-01	-6.770000000000E-02	-1.391000000000E-01
	O16	O	-1.207500000000E-01	6.770000000000E-02	-1.391000000000E-01
	O17	O	3.385000000000E-02	-2.415000000000E-01	1.391000000000E-01
	O18	O	-3.385000000000E-02	2.415000000000E-01	1.391000000000E-01
	O19	O	1.016000000000E-01	-2.032000000000E-01	-5.000000000000E-01
	O20	O	-1.016000000000E-01	2.032000000000E-01	-5.000000000000E-01
	O21	O	1.076000000000E-01	-1.100000000000E-02	3.623000000000E-01
	O22	O	-1.076000000000E-01	1.100000000000E-02	3.623000000000E-01
	O23	O	5.500000000000E-03	-2.152000000000E-01	-3.623000000000E-01
	O24	O	-5.500000000000E-03	2.152000000000E-01	-3.623000000000E-01
	O25	O	4.835000000000E-02	9.670000000000E-02	0.000000000000E+00
	O26	O	-4.835000000000E-02	-9.670000000000E-02	0.000000000000E+00
	O27	O	1.487000000000E-01	1.056000000000E-01	3.040000000000E-02
	O28	O	-1.487000000000E-01	-1.056000000000E-01	3.040000000000E-02
	O29	O	-5.280000000000E-02	-2.974000000000E-01	-3.040000000000E-02
	O30	O	5.280000000000E-02	2.974000000000E-01	-3.040000000000E-02
	O31	O	1.530500000000E-01	3.061000000000E-01	0.000000000000E+00
	O32	O	-1.530500000000E-01	-3.061000000000E-01	0.000000000000E+00
	Si33	Si	2.502500000000E-01	-1.237000000000E-01	-4.285000000000E-01
	Si34	Si	-2.502500000000E-01	1.237000000000E-01	-4.285000000000E-01
	Si35	Si	6.185000000000E-02	4.995000000000E-01	4.285000000000E-01
	Si36	Si	-6.185000000000E-02	-4.995000000000E-01	4.285000000000E-01
	Si37	Si	1.306000000000E-01	-1.068000000000E-01	-4.409000000000E-01
	Si38	Si	-1.306000000000E-01	1.068000000000E-01	-4.409000000000E-01
	Si39	Si	5.340000000000E-02	-2.612000000000E-01	4.409000000000E-01
	Si40	Si	-5.340000000000E-02	2.612000000000E-01	4.409000000000E-01
	Si41	Si	1.065000000000E-01	3.040000000000E-02	6.130000000000E-02
	Si42	Si	-1.065000000000E-01	-3.040000000000E-02	6.130000000000E-02
	Si43	Si	-1.520000000000E-02	-2.130000000000E-01	-6.130000000000E-02
	Si44	Si	1.520000000000E-02	2.130000000000E-01	-6.130000000000E-02
	Si45	Si	1.858500000000E-01	1.903000000000E-01	6.930000000000E-02
	Si46	Si	-1.858500000000E-01	-1.903000000000E-01	6.930000000000E-02
	Si47	Si	-9.515000000000E-02	-3.717000000000E-01	-6.930000000000E-02
	Si48	Si	9.515000000000E-02	3.717000000000E-01	-6.930000000000E-02
	O49	O	2.352000000000E-01	1.620000000000E-01	-1.294000000000E-01
	O50	O	-4.516500000000E-01	9.670000000000E-02	0.000000000000E+00
	O51	O	-4.276000000000E-01	-3.852000000000E-01	4.972000000000E-01
	O52	O	4.516500000000E-01	-9.670000000000E-02	0.000000000000E+00
	O53	O	-4.061500000000E-01	4.139000000000E-01	-3.697000000000E-01
	O54	O	-3.513000000000E-01	1.056000000000E-01	3.040000000000E-02
	O55	O	4.276000000000E-01	3.852000000000E-01	4.972000000000E-01
	O56	O	3.513000000000E-01	-1.056000000000E-01	3.040000000000E-02
	O57	O	4.190000000000E-01	-4.704000000000E-01	1.294000000000E-01
	O58	O	4.472000000000E-01	-2.974000000000E-01	-3.040000000000E-02
	O59	O	-3.792500000000E-01	-6.770000000000E-02	-1.391000000000E-01
	O60	O	-4.472000000000E-01	2.974000000000E-01	-3.040000000000E-02
	O61	O	4.061500000000E-01	-4.139000000000E-01	-3.697000000000E-01
	O62	O	-3.469500000000E-01	3.061000000000E-01	0.000000000000E+00
	O63	O	3.792500000000E-01	6.770000000000E-02	-1.391000000000E-01
	O64	O	3.469500000000E-01	-3.061000000000E-01	0.000000000000E+00
	O65	O	-2.352000000000E-01	-1.620000000000E-01	-1.294000000000E-01
	Si66	Si	-2.497500000000E-01	-1.237000000000E-01	-4.285000000000E-01
	O67	O	-4.661500000000E-01	-2.415000000000E-01	1.391000000000E-01
	Si68	Si	2.497500000000E-01	1.237000000000E-01	-4.285000000000E-01
	O69	O	-2.500000000000E-01	-8.135888913310E-17	-4.541000000000E-01
	Si70	Si	-4.381500000000E-01	4.995000000000E-01	4.285000000000E-01
	O71	O	4.661500000000E-01	2.415000000000E-01	1.391000000000E-01
	Si72	Si	4.381500000000E-01	-4.995000000000E-01	4.285000000000E-01
	O73	O	2.930500000000E-01	-1.877000000000E-01	3.697000000000E-01
	Si74	Si	-3.694000000000E-01	-1.068000000000E-01	-4.409000000000E-01
	O75	O	-3.984000000000E-01	-2.032000000000E-01	-5.000000000000E-01
	Si76	Si	3.694000000000E-01	1.068000000000E-01	-4.409000000000E-01
	O77	O	-5.000000000000E-01	-5.000000000000E-01	4.541000000000E-01
	Si78	Si	-4.466000000000E-01	-2.612000000000E-01	4.409000000000E-01
	O79	O	3.984000000000E-01	2.032000000000E-01	-5.000000000000E-01
	Si80	Si	4.466000000000E-01	2.612000000000E-01	4.409000000000E-01
	O81	O	-4.190000000000E-01	4.704000000000E-01	1.294000000000E-01
	Si82	Si	-3.935000000000E-01	3.040000000000E-02	6.130000000000E-02
	O83	O	-3.924000000000E-01	-1.100000000000E-02	3.623000000000E-01
	Si84	Si	3.935000000000E-01	-3.040000000000E-02	6.130000000000E-02
	O85	O	-3.074000000000E-01	-1.448000000000E-01	-4.972000000000E-01
	Si86	Si	4.848000000000E-01	-2.130000000000E-01	-6.130000000000E-02
	O87	O	3.924000000000E-01	1.100000000000E-02	3.623000000000E-01
	Si88	Si	-4.848000000000E-01	2.130000000000E-01	-6.130000000000E-02
	O89	O	-2.930500000000E-01	1.877000000000E-01	3.697000000000E-01
	Si90	Si	-3.141500000000E-01	1.903000000000E-01	6.930000000000E-02
	O91	O	-4.945000000000E-01	-2.152000000000E-01	-3.623000000000E-01
	Si92	Si	3.141500000000E-01	-1.903000000000E-01	6.930000000000E-02
	O93	O	3.074000000000E-01	1.448000000000E-01	-4.972000000000E-01
	Si94	Si	4.048500000000E-01	-3.717000000000E-01	-6.930000000000E-02
	O95	O	4.945000000000E-01	2.152000000000E-01	-3.623000000000E-01
	Si96	Si	-4.048500000000E-01	3.717000000000E-01	-6.930000000000E-02


data_ IFO
_chemical_name_common		'IFO'
_cell_length_a		16.43882000
_cell_length_b		4.94530000
_cell_length_c		22.78303000
_cell_angle_alpha		90.000000
_cell_angle_beta		90.000000
_cell_angle_gamma		90.000000
_space group_name_H-M_alt		'P 1'
_space_group_IT_number		1

loop_
	_atom_site_label
	_atom_site_type_symbol
	_atom_site_fract_x
	_atom_site_fract_y
	_atom_site_fract_z
	Si1	Si	4.451300000000E-01	2.633000000000E-01	2.541100000000E-01
	Si2	Si	-4.451300000000E-01	-2.633000000000E-01	2.541100000000E-01
	Si3	Si	-5.487000000000E-02	2.367000000000E-01	2.458900000000E-01
	Si4	Si	5.487000000000E-02	-2.367000000000E-01	2.458900000000E-01
	Si5	Si	-4.451300000000E-01	-2.633000000000E-01	-2.541100000000E-01
	Si6	Si	4.451300000000E-01	2.633000000000E-01	-2.541100000000E-01
	Si7	Si	5.487000000000E-02	-2.367000000000E-01	-2.458900000000E-01
	Si8	Si	-5.487000000000E-02	2.367000000000E-01	-2.458900000000E-01
	Si9	Si	2.763600000000E-01	1.093800000000E-01	2.857600000000E-01
	Si10	Si	-2.763600000000E-01	-1.093800000000E-01	2.857600000000E-01
	Si11	Si	-2.236400000000E-01	3.906200000000E-01	2.142400000000E-01
	Si12	Si	2.236400000000E-01	-3.906200000000E-01	2.142400000000E-01
	Si13	Si	-2.763600000000E-01	-1.093800000000E-01	-2.857600000000E-01
	Si14	Si	2.763600000000E-01	1.093800000000E-01	-2.857600000000E-01
	Si15	Si	2.236400000000E-01	-3.906200000000E-01	-2.142400000000E-01
	Si16	Si	-2.236400000000E-01	3.906200000000E-01	-2.142400000000E-01
	Si17	Si	-4.079700000000E-01	8.881000000000E-02	6.899000000000E-02
	Si18	Si	4.079700000000E-01	-8.881000000000E-02	6.899000000000E-02
	Si19	Si	9.203000000000E-02	4.111900000000E-01	4.310100000000E-01
	Si20	Si	-9.203000000000E-02	-4.111900000000E-01	4.310100000000E-01
	Si21	Si	4.079700000000E-01	-8.881000000000E-02	-6.899000000000E-02
	Si22	Si	-4.079700000000E-01	8.881000000000E-02	-6.899000000000E-02
	Si23	Si	-9.203000000000E-02	-4.111900000000E-01	-4.310100000000E-01
	Si24	Si	9.203000000000E-02	4.111900000000E-01	-4.310100000000E-01
	Si25	Si	3.535400000000E-01	3.966900000000E-01	1.352800000000E-01
	Si26	Si	-3.535400000000E-01	-3.966900000000E-01	1.352800000000E-01
	Si27	Si	-1.464600000000E-01	1.033100000000E-01	3.647200000000E-01
	Si28	Si	1.464600000000E-01	-1.033100000000E-01	3.647200000000E-01
	Si29	Si	-3.535400000000E-01	-3.966900000000E-01	-1.352800000000E-01
	Si30	Si	3.535400000000E-01	3.966900000000E-01	-1.352800000000E-01
	Si31	Si	1.464600000000E-01	-1.033100000000E-01	-3.647200000000E-01
	Si32	Si	-1.464600000000E-01	1.033100000000E-01	-3.647200000000E-01
	O33	O	4.103600000000E-01	3.740600000000E-01	1.925700000000E-01
	O34	O	-4.103600000000E-01	-3.740600000000E-01	1.925700000000E-01
	O35	O	-8.964000000000E-02	1.259400000000E-01	3.074300000000E-01
	O36	O	8.964000000000E-02	-1.259400000000E-01	3.074300000000E-01
	O37	O	-4.103600000000E-01	-3.740600000000E-01	-1.925700000000E-01
	O38	O	4.103600000000E-01	3.740600000000E-01	-1.925700000000E-01
	O39	O	8.964000000000E-02	-1.259400000000E-01	-3.074300000000E-01
	O40	O	-8.964000000000E-02	1.259400000000E-01	-3.074300000000E-01
	O41	O	-5.000000000000E-01	0.000000000000E+00	2.421000000000E-01
	O42	O	0.000000000000E+00	-5.000000000000E-01	2.579000000000E-01
	O43	O	-5.000000000000E-01	0.000000000000E+00	-2.421000000000E-01
	O44	O	0.000000000000E+00	-5.000000000000E-01	-2.579000000000E-01
	O45	O	-5.000000000000E-01	-5.000000000000E-01	2.824400000000E-01
	O46	O	0.000000000000E+00	-1.110223024625E-16	2.175600000000E-01
	O47	O	-5.000000000000E-01	-5.000000000000E-01	-2.824400000000E-01
	O48	O	0.000000000000E+00	-3.428910554792E-17	-2.175600000000E-01
	O49	O	3.702800000000E-01	1.877000000000E-01	2.966500000000E-01
	O50	O	-3.702800000000E-01	-1.877000000000E-01	2.966500000000E-01
	O51	O	-1.297200000000E-01	3.123000000000E-01	2.033500000000E-01
	O52	O	1.297200000000E-01	-3.123000000000E-01	2.033500000000E-01
	O53	O	-3.702800000000E-01	-1.877000000000E-01	-2.966500000000E-01
	O54	O	3.702800000000E-01	1.877000000000E-01	-2.966500000000E-01
	O55	O	1.297200000000E-01	-3.123000000000E-01	-2.033500000000E-01
	O56	O	-1.297200000000E-01	3.123000000000E-01	-2.033500000000E-01
	O57	O	2.715500000000E-01	-1.273100000000E-01	2.373400000000E-01
	O58	O	-2.715500000000E-01	1.273100000000E-01	2.373400000000E-01
	O59	O	-2.284500000000E-01	-3.726900000000E-01	2.626600000000E-01
	O60	O	2.284500000000E-01	3.726900000000E-01	2.626600000000E-01
	O61	O	-2.715500000000E-01	1.273100000000E-01	-2.373400000000E-01
	O62	O	2.715500000000E-01	-1.273100000000E-01	-2.373400000000E-01
	O63	O	2.284500000000E-01	3.726900000000E-01	-2.626600000000E-01
	O64	O	-2.284500000000E-01	-3.726900000000E-01	-2.626600000000E-01
	O65	O	2.350700000000E-01	4.370000000000E-03	3.456900000000E-01
	O66	O	-2.350700000000E-01	-4.370000000000E-03	3.456900000000E-01
	O67	O	-2.649300000000E-01	4.956300000000E-01	1.543100000000E-01
	O68	O	2.649300000000E-01	-4.956300000000E-01	1.543100000000E-01
	O69	O	-2.350700000000E-01	-4.370000000000E-03	-3.456900000000E-01
	O70	O	2.350700000000E-01	4.370000000000E-03	-3.456900000000E-01
	O71	O	2.649300000000E-01	-4.956300000000E-01	-1.543100000000E-01
	O72	O	-2.649300000000E-01	4.956300000000E-01	-1.543100000000E-01
	O73	O	-5.000000000000E-01	0.000000000000E+00	8.320000000000E-02
	O74	O	0.000000000000E+00	-5.000000000000E-01	4.168000000000E-01
	O75	O	-5.000000000000E-01	0.000000000000E+00	-8.320000000000E-02
	O76	O	0.000000000000E+00	-5.000000000000E-01	-4.168000000000E-01
	O77	O	-3.465200000000E-01	-1.030200000000E-01	1.051100000000E-01
	O78	O	3.465200000000E-01	1.030200000000E-01	1.051100000000E-01
	O79	O	1.534800000000E-01	-3.969800000000E-01	3.948900000000E-01
	O80	O	-1.534800000000E-01	3.969800000000E-01	3.948900000000E-01
	O81	O	3.465200000000E-01	1.030200000000E-01	-1.051100000000E-01
	O82	O	-3.465200000000E-01	-1.030200000000E-01	-1.051100000000E-01
	O83	O	-1.534800000000E-01	3.969800000000E-01	-3.948900000000E-01
	O84	O	1.534800000000E-01	-3.969800000000E-01	-3.948900000000E-01
	O85	O	-3.940200000000E-01	3.975700000000E-01	8.896000000000E-02
	O86	O	3.940200000000E-01	-3.975700000000E-01	8.896000000000E-02
	O87	O	1.059800000000E-01	1.024300000000E-01	4.110400000000E-01
	O88	O	-1.059800000000E-01	-1.024300000000E-01	4.110400000000E-01
	O89	O	3.940200000000E-01	-3.975700000000E-01	-8.896000000000E-02
	O90	O	-3.940200000000E-01	3.975700000000E-01	-8.896000000000E-02
	O91	O	-1.059800000000E-01	-1.024300000000E-01	-4.110400000000E-01
	O92	O	1.059800000000E-01	1.024300000000E-01	-4.110400000000E-01
	O93	O	-3.896000000000E-01	5.763000000000E-02	0.000000000000E+00
	O94	O	3.896000000000E-01	-5.763000000000E-02	0.000000000000E+00
	O95	O	1.104000000000E-01	4.423700000000E-01	-5.000000000000E-01
	O96	O	-1.104000000000E-01	-4.423700000000E-01	-5.000000000000E-01


data_ IFR
_chemical_name_common		'IFR'
_cell_length_a		11.48399408
_cell_length_b		22.96798816
_cell_length_c		7.62900000
_cell_angle_alpha		80.033007
_cell_angle_beta		99.966993
_cell_angle_gamma		108.395700
_space group_name_H-M_alt		'P 1'
_space_group_IT_number		1

loop_
	_atom_site_label
	_atom_site_type_symbol
	_atom_site_fract_x
	_atom_site_fract_y
	_atom_site_fract_z
	O1	O	-3.134000000000E-01	-2.176000000000E-01	-1.582000000000E-01
	O2	O	-4.352000000000E-01	-1.567000000000E-01	1.582000000000E-01
	O3	O	3.134000000000E-01	2.176000000000E-01	1.582000000000E-01
	O4	O	4.352000000000E-01	1.567000000000E-01	-1.582000000000E-01
	O5	O	4.591000000000E-01	-2.295500000000E-01	-3.151000000000E-01
	O6	O	-4.591000000000E-01	-2.704500000000E-01	3.151000000000E-01
	O7	O	-3.915000000000E-01	-1.194500000000E-01	-2.555000000000E-01
	O8	O	-2.389000000000E-01	-1.957500000000E-01	2.555000000000E-01
	O9	O	3.915000000000E-01	1.194500000000E-01	2.555000000000E-01
	O10	O	2.389000000000E-01	1.957500000000E-01	-2.555000000000E-01
	O11	O	-3.532000000000E-01	-1.766000000000E-01	-5.000000000000E-01
	O12	O	3.532000000000E-01	1.766000000000E-01	-5.000000000000E-01
	O13	O	-1.366000000000E-01	-2.483000000000E-01	7.000000000000E-02
	O14	O	-4.966000000000E-01	-6.830000000000E-02	-7.000000000000E-02
	O15	O	1.366000000000E-01	2.483000000000E-01	-7.000000000000E-02
	O16	O	4.966000000000E-01	6.830000000000E-02	7.000000000000E-02
	O17	O	-3.305000000000E-01	1.652500000000E-01	-5.120000000000E-02
	O18	O	3.305000000000E-01	-1.652500000000E-01	5.120000000000E-02
	O19	O	-1.678000000000E-01	2.311000000000E-01	-2.666000000000E-01
	O20	O	4.622000000000E-01	-8.390000000000E-02	2.666000000000E-01
	O21	O	1.678000000000E-01	-2.311000000000E-01	2.666000000000E-01
	O22	O	-4.622000000000E-01	8.390000000000E-02	-2.666000000000E-01
	O23	O	3.677000000000E-01	2.500000000000E-04	3.252000000000E-01
	O24	O	5.000000000003E-04	1.838500000000E-01	-3.252000000000E-01
	O25	O	-3.677000000000E-01	-2.500000000000E-04	-3.252000000000E-01
	O26	O	-5.000000000003E-04	-1.838500000000E-01	3.252000000000E-01
	O27	O	4.177000000000E-01	-8.115000000000E-02	-4.086000000000E-01
	O28	O	-1.623000000000E-01	2.088500000000E-01	4.086000000000E-01
	O29	O	-4.177000000000E-01	8.115000000000E-02	4.086000000000E-01
	O30	O	1.623000000000E-01	-2.088500000000E-01	-4.086000000000E-01
	O31	O	2.328000000000E-01	-1.164000000000E-01	3.388000000000E-01
	O32	O	-2.328000000000E-01	1.164000000000E-01	-3.388000000000E-01
	Si33	Si	-4.595000000000E-01	-6.725000000000E-02	-2.649000000000E-01
	Si34	Si	-1.345000000000E-01	-2.297500000000E-01	2.649000000000E-01
	Si35	Si	4.595000000000E-01	6.725000000000E-02	2.649000000000E-01
	Si36	Si	1.345000000000E-01	2.297500000000E-01	-2.649000000000E-01
	Si37	Si	-4.000000000000E-01	-1.859000000000E-01	-3.072000000000E-01
	Si38	Si	-3.718000000000E-01	-2.000000000000E-01	3.072000000000E-01
	Si39	Si	4.000000000000E-01	1.859000000000E-01	3.072000000000E-01
	Si40	Si	3.718000000000E-01	2.000000000000E-01	-3.072000000000E-01
	Si41	Si	-2.369000000000E-01	-2.672500000000E-01	-1.019000000000E-01
	Si42	Si	4.655000000000E-01	-1.184500000000E-01	1.019000000000E-01
	Si43	Si	2.369000000000E-01	2.672500000000E-01	1.019000000000E-01
	Si44	Si	-4.655000000000E-01	1.184500000000E-01	-1.019000000000E-01
	Si45	Si	3.699000000000E-01	-7.035000000000E-02	3.805000000000E-01
	Si46	Si	-1.407000000000E-01	1.849500000000E-01	-3.805000000000E-01
	Si47	Si	-3.699000000000E-01	7.035000000000E-02	-3.805000000000E-01
	Si48	Si	1.407000000000E-01	-1.849500000000E-01	3.805000000000E-01
	O49	O	-4.352000000000E-01	3.433000000000E-01	1.582000000000E-01
	O50	O	-3.677000000000E-01	4.997500000000E-01	-3.252000000000E-01
	O51	O	-1.366000000000E-01	2.517000000000E-01	7.000000000000E-02
	O52	O	-5.000000000000E-04	3.161500000000E-01	3.252000000000E-01
	O53	O	-3.915000000000E-01	3.805500000000E-01	-2.555000000000E-01
	O54	O	4.177000000000E-01	4.188500000000E-01	-4.086000000000E-01
	O55	O	-4.966000000000E-01	4.317000000000E-01	-7.000000000000E-02
	O56	O	-1.623000000000E-01	-2.911500000000E-01	4.086000000000E-01
	O57	O	4.352000000000E-01	-3.433000000000E-01	-1.582000000000E-01
	O58	O	-4.177000000000E-01	-4.188500000000E-01	4.086000000000E-01
	O59	O	1.366000000000E-01	-2.517000000000E-01	-7.000000000000E-02
	O60	O	1.623000000000E-01	2.911500000000E-01	-4.086000000000E-01
	O61	O	-2.389000000000E-01	3.042500000000E-01	2.555000000000E-01
	O62	O	2.328000000000E-01	3.836000000000E-01	3.388000000000E-01
	O63	O	4.966000000000E-01	-4.317000000000E-01	7.000000000000E-02
	O64	O	-2.328000000000E-01	-3.836000000000E-01	-3.388000000000E-01
	O65	O	-3.134000000000E-01	2.824000000000E-01	-1.582000000000E-01
	Si66	Si	-4.595000000000E-01	4.327500000000E-01	-2.649000000000E-01
	O67	O	-3.305000000000E-01	-3.347500000000E-01	-5.120000000000E-02
	Si68	Si	-1.345000000000E-01	2.702500000000E-01	2.649000000000E-01
	O69	O	3.915000000000E-01	-3.805500000000E-01	2.555000000000E-01
	Si70	Si	4.595000000000E-01	-4.327500000000E-01	2.649000000000E-01
	O71	O	3.305000000000E-01	3.347500000000E-01	5.120000000000E-02
	Si72	Si	1.345000000000E-01	-2.702500000000E-01	-2.649000000000E-01
	O73	O	4.591000000000E-01	2.704500000000E-01	-3.151000000000E-01
	Si74	Si	-4.000000000000E-01	3.141000000000E-01	-3.072000000000E-01
	O75	O	-1.678000000000E-01	-2.689000000000E-01	-2.666000000000E-01
	Si76	Si	-3.718000000000E-01	3.000000000000E-01	3.072000000000E-01
	O77	O	2.389000000000E-01	-3.042500000000E-01	-2.555000000000E-01
	Si78	Si	4.000000000000E-01	-3.141000000000E-01	3.072000000000E-01
	O79	O	4.622000000000E-01	4.161000000000E-01	2.666000000000E-01
	Si80	Si	3.718000000000E-01	-3.000000000000E-01	-3.072000000000E-01
	O81	O	3.134000000000E-01	-2.824000000000E-01	1.582000000000E-01
	Si82	Si	-2.369000000000E-01	2.327500000000E-01	-1.019000000000E-01
	O83	O	1.678000000000E-01	2.689000000000E-01	2.666000000000E-01
	Si84	Si	4.655000000000E-01	3.815500000000E-01	1.019000000000E-01
	O85	O	-3.532000000000E-01	3.234000000000E-01	-5.000000000000E-01
	Si86	Si	2.369000000000E-01	-2.327500000000E-01	1.019000000000E-01
	O87	O	-4.622000000000E-01	-4.161000000000E-01	-2.666000000000E-01
	Si88	Si	-4.655000000000E-01	-3.815500000000E-01	-1.019000000000E-01
	O89	O	-4.591000000000E-01	2.295500000000E-01	3.151000000000E-01
	Si90	Si	3.699000000000E-01	4.296500000000E-01	3.805000000000E-01
	O91	O	3.677000000000E-01	-4.997500000000E-01	3.252000000000E-01
	Si92	Si	-1.407000000000E-01	-3.150500000000E-01	-3.805000000000E-01
	O93	O	3.532000000000E-01	-3.234000000000E-01	-5.000000000000E-01
	Si94	Si	-3.699000000000E-01	-4.296500000000E-01	-3.805000000000E-01
	O95	O	5.000000000002E-04	-3.161500000000E-01	-3.252000000000E-01
	Si96	Si	1.407000000000E-01	3.150500000000E-01	3.805000000000E-01


data_ IFW
_chemical_name_common		'IFW'
_cell_length_a		14.15747862
_cell_length_b		14.15747862
_cell_length_c		12.48474000
_cell_angle_alpha		64.149829
_cell_angle_beta		115.850171
_cell_angle_gamma		99.840114
_space group_name_H-M_alt		'P 1'
_space_group_IT_number		1

loop_
	_atom_site_label
	_atom_site_type_symbol
	_atom_site_fract_x
	_atom_site_fract_y
	_atom_site_fract_z
	Si1	Si	3.336000000000E-01	-1.328000000000E-02	4.643500000000E-01
	Si2	Si	-1.328000000000E-02	3.336000000000E-01	-4.643500000000E-01
	Si3	Si	-3.336000000000E-01	1.328000000000E-02	-4.643500000000E-01
	Si4	Si	1.328000000000E-02	-3.336000000000E-01	4.643500000000E-01
	Si5	Si	3.025900000000E-01	2.052500000000E-01	4.468700000000E-01
	Si6	Si	2.052500000000E-01	3.025900000000E-01	-4.468700000000E-01
	Si7	Si	-3.025900000000E-01	-2.052500000000E-01	-4.468700000000E-01
	Si8	Si	-2.052500000000E-01	-3.025900000000E-01	4.468700000000E-01
	Si9	Si	4.527300000000E-01	4.019000000000E-02	2.915000000000E-01
	Si10	Si	4.019000000000E-02	4.527300000000E-01	-2.915000000000E-01
	Si11	Si	-4.527300000000E-01	-4.019000000000E-02	-2.915000000000E-01
	Si12	Si	-4.019000000000E-02	-4.527300000000E-01	2.915000000000E-01
	Si13	Si	4.142000000000E-01	2.837200000000E-01	-2.164100000000E-01
	Si14	Si	2.837200000000E-01	4.142000000000E-01	2.164100000000E-01
	Si15	Si	-4.142000000000E-01	-2.837200000000E-01	2.164100000000E-01
	Si16	Si	-2.837200000000E-01	-4.142000000000E-01	-2.164100000000E-01
	Si17	Si	4.323900000000E-01	2.611100000000E-01	5.330000000000E-02
	Si18	Si	2.611100000000E-01	4.323900000000E-01	-5.330000000000E-02
	Si19	Si	-4.323900000000E-01	-2.611100000000E-01	-5.330000000000E-02
	Si20	Si	-2.611100000000E-01	-4.323900000000E-01	5.330000000000E-02
	Si21	Si	-4.883800000000E-01	1.767000000000E-01	-3.145500000000E-01
	Si22	Si	1.767000000000E-01	-4.883800000000E-01	3.145500000000E-01
	Si23	Si	4.883800000000E-01	-1.767000000000E-01	3.145500000000E-01
	Si24	Si	-1.767000000000E-01	4.883800000000E-01	-3.145500000000E-01
	Si25	Si	-3.295100000000E-01	3.295100000000E-01	-4.047500000000E-01
	Si26	Si	3.295100000000E-01	-3.295100000000E-01	4.047500000000E-01
	Si27	Si	-3.757000000000E-01	3.757000000000E-01	2.013200000000E-01
	Si28	Si	3.757000000000E-01	-3.757000000000E-01	-2.013200000000E-01
	Si29	Si	2.302100000000E-01	-2.302100000000E-01	-4.785600000000E-01
	Si30	Si	-2.302100000000E-01	2.302100000000E-01	4.785600000000E-01
	Si31	Si	-4.750600000000E-01	4.750600000000E-01	3.179100000000E-01
	Si32	Si	4.750600000000E-01	-4.750600000000E-01	-3.179100000000E-01
	O33	O	2.853500000000E-01	8.907000000000E-02	4.493200000000E-01
	O34	O	8.907000000000E-02	2.853500000000E-01	-4.493200000000E-01
	O35	O	-2.853500000000E-01	-8.907000000000E-02	-4.493200000000E-01
	O36	O	-8.907000000000E-02	-2.853500000000E-01	4.493200000000E-01
	O37	O	2.791000000000E-01	2.903800000000E-01	3.003400000000E-01
	O38	O	2.903800000000E-01	2.791000000000E-01	-3.003400000000E-01
	O39	O	-2.791000000000E-01	-2.903800000000E-01	-3.003400000000E-01
	O40	O	-2.903800000000E-01	-2.791000000000E-01	3.003400000000E-01
	O41	O	4.227500000000E-01	2.157500000000E-01	-4.613000000000E-01
	O42	O	2.157500000000E-01	4.227500000000E-01	4.613000000000E-01
	O43	O	-4.227500000000E-01	-2.157500000000E-01	4.613000000000E-01
	O44	O	-2.157500000000E-01	-4.227500000000E-01	-4.613000000000E-01
	O45	O	4.363500000000E-01	2.471900000000E-01	-6.592000000000E-02
	O46	O	2.471900000000E-01	4.363500000000E-01	6.592000000000E-02
	O47	O	-4.363500000000E-01	-2.471900000000E-01	6.592000000000E-02
	O48	O	-2.471900000000E-01	-4.363500000000E-01	-6.592000000000E-02
	O49	O	4.550300000000E-01	4.008100000000E-01	-2.729300000000E-01
	O50	O	4.008100000000E-01	4.550300000000E-01	2.729300000000E-01
	O51	O	-4.550300000000E-01	-4.008100000000E-01	2.729300000000E-01
	O52	O	-4.008100000000E-01	-4.550300000000E-01	-2.729300000000E-01
	O53	O	4.744200000000E-01	2.021800000000E-01	-2.249600000000E-01
	O54	O	2.021800000000E-01	4.744200000000E-01	2.249600000000E-01
	O55	O	-4.744200000000E-01	-2.021800000000E-01	2.249600000000E-01
	O56	O	-2.021800000000E-01	-4.744200000000E-01	-2.249600000000E-01
	O57	O	-4.644100000000E-01	3.203700000000E-01	1.142200000000E-01
	O58	O	3.203700000000E-01	-4.644100000000E-01	-1.142200000000E-01
	O59	O	4.644100000000E-01	-3.203700000000E-01	-1.142200000000E-01
	O60	O	-3.203700000000E-01	4.644100000000E-01	1.142200000000E-01
	O61	O	4.257600000000E-01	1.480800000000E-01	1.626100000000E-01
	O62	O	1.480800000000E-01	4.257600000000E-01	-1.626100000000E-01
	O63	O	-4.257600000000E-01	-1.480800000000E-01	-1.626100000000E-01
	O64	O	-1.480800000000E-01	-4.257600000000E-01	1.626100000000E-01
	O65	O	-3.821200000000E-01	2.386400000000E-01	-3.158100000000E-01
	O66	O	2.386400000000E-01	-3.821200000000E-01	3.158100000000E-01
	O67	O	3.821200000000E-01	-2.386400000000E-01	3.158100000000E-01
	O68	O	-2.386400000000E-01	3.821200000000E-01	-3.158100000000E-01
	O69	O	-4.663300000000E-01	5.269000000000E-02	-2.574400000000E-01
	O70	O	5.269000000000E-02	-4.663300000000E-01	2.574400000000E-01
	O71	O	4.663300000000E-01	-5.269000000000E-02	2.574400000000E-01
	O72	O	-5.269000000000E-02	4.663300000000E-01	-2.574400000000E-01
	O73	O	3.596800000000E-01	1.392000000000E-02	3.408200000000E-01
	O74	O	1.392000000000E-02	3.596800000000E-01	-3.408200000000E-01
	O75	O	-3.596800000000E-01	-1.392000000000E-02	-3.408200000000E-01
	O76	O	-1.392000000000E-02	-3.596800000000E-01	3.408200000000E-01
	O77	O	2.499800000000E-01	-1.059400000000E-01	4.742300000000E-01
	O78	O	-1.059400000000E-01	2.499800000000E-01	-4.742300000000E-01
	O79	O	-2.499800000000E-01	1.059400000000E-01	-4.742300000000E-01
	O80	O	1.059400000000E-01	-2.499800000000E-01	4.742300000000E-01
	O81	O	4.395000000000E-01	-5.226000000000E-02	-4.043800000000E-01
	O82	O	-5.226000000000E-02	4.395000000000E-01	4.043800000000E-01
	O83	O	-4.395000000000E-01	5.226000000000E-02	4.043800000000E-01
	O84	O	5.226000000000E-02	-4.395000000000E-01	-4.043800000000E-01
	O85	O	2.268100000000E-01	2.268100000000E-01	5.000000000000E-01
	O86	O	-2.268100000000E-01	-2.268100000000E-01	5.000000000000E-01
	O87	O	3.288100000000E-01	3.288100000000E-01	0.000000000000E+00
	O88	O	-3.288100000000E-01	-3.288100000000E-01	0.000000000000E+00
	O89	O	-4.165000000000E-01	4.165000000000E-01	4.741500000000E-01
	O90	O	4.165000000000E-01	-4.165000000000E-01	-4.741500000000E-01
	O91	O	-4.290100000000E-01	4.290100000000E-01	2.525700000000E-01
	O92	O	4.290100000000E-01	-4.290100000000E-01	-2.525700000000E-01
	O93	O	-2.766100000000E-01	2.766100000000E-01	-4.568100000000E-01
	O94	O	2.766100000000E-01	-2.766100000000E-01	4.568100000000E-01
	O95	O	-2.886600000000E-01	2.886600000000E-01	3.223800000000E-01
	O96	O	2.886600000000E-01	-2.886600000000E-01	-3.223800000000E-01


data_ IFY
_chemical_name_common		'IFY'
_cell_length_a		15.15117000
_cell_length_b		15.15117000
_cell_length_c		11.84800000
_cell_angle_alpha		90.000000
_cell_angle_beta		90.000000
_cell_angle_gamma		90.000000
_space group_name_H-M_alt		'P 1'
_space_group_IT_number		1

loop_
	_atom_site_label
	_atom_site_type_symbol
	_atom_site_fract_x
	_atom_site_fract_y
	_atom_site_fract_z
	Si1	Si	9.107000000000E-02	-2.679900000000E-01	1.874900000000E-01
	Si2	Si	-9.107000000000E-02	2.679900000000E-01	1.874900000000E-01
	Si3	Si	-4.089300000000E-01	-2.320100000000E-01	-1.874900000000E-01
	Si4	Si	4.089300000000E-01	2.320100000000E-01	-1.874900000000E-01
	Si5	Si	-2.320100000000E-01	4.089300000000E-01	-1.874900000000E-01
	Si6	Si	2.320100000000E-01	-4.089300000000E-01	-1.874900000000E-01
	Si7	Si	-2.679900000000E-01	-9.107000000000E-02	1.874900000000E-01
	Si8	Si	2.679900000000E-01	9.107000000000E-02	1.874900000000E-01
	Si9	Si	-9.107000000000E-02	2.679900000000E-01	-1.874900000000E-01
	Si10	Si	9.107000000000E-02	-2.679900000000E-01	-1.874900000000E-01
	Si11	Si	4.089300000000E-01	2.320100000000E-01	1.874900000000E-01
	Si12	Si	-4.089300000000E-01	-2.320100000000E-01	1.874900000000E-01
	Si13	Si	2.320100000000E-01	-4.089300000000E-01	1.874900000000E-01
	Si14	Si	-2.320100000000E-01	4.089300000000E-01	1.874900000000E-01
	Si15	Si	2.679900000000E-01	9.107000000000E-02	-1.874900000000E-01
	Si16	Si	-2.679900000000E-01	-9.107000000000E-02	-1.874900000000E-01
	Si17	Si	2.320000000000E-02	-1.420800000000E-01	3.682800000000E-01
	Si18	Si	-2.320000000000E-02	1.420800000000E-01	3.682800000000E-01
	Si19	Si	-4.768000000000E-01	-3.579200000000E-01	-3.682800000000E-01
	Si20	Si	4.768000000000E-01	3.579200000000E-01	-3.682800000000E-01
	Si21	Si	-3.579200000000E-01	4.768000000000E-01	-3.682800000000E-01
	Si22	Si	3.579200000000E-01	-4.768000000000E-01	-3.682800000000E-01
	Si23	Si	-1.420800000000E-01	-2.320000000000E-02	3.682800000000E-01
	Si24	Si	1.420800000000E-01	2.320000000000E-02	3.682800000000E-01
	Si25	Si	-2.320000000000E-02	1.420800000000E-01	-3.682800000000E-01
	Si26	Si	2.320000000000E-02	-1.420800000000E-01	-3.682800000000E-01
	Si27	Si	4.768000000000E-01	3.579200000000E-01	3.682800000000E-01
	Si28	Si	-4.768000000000E-01	-3.579200000000E-01	3.682800000000E-01
	Si29	Si	3.579200000000E-01	-4.768000000000E-01	3.682800000000E-01
	Si30	Si	-3.579200000000E-01	4.768000000000E-01	3.682800000000E-01
	Si31	Si	1.420800000000E-01	2.320000000000E-02	-3.682800000000E-01
	Si32	Si	-1.420800000000E-01	-2.320000000000E-02	-3.682800000000E-01
	Si33	Si	3.087000000000E-02	3.194100000000E-01	0.000000000000E+00
	Si34	Si	-3.087000000000E-02	-3.194100000000E-01	0.000000000000E+00
	Si35	Si	-4.691300000000E-01	1.805900000000E-01	0.000000000000E+00
	Si36	Si	4.691300000000E-01	-1.805900000000E-01	0.000000000000E+00
	Si37	Si	1.805900000000E-01	4.691300000000E-01	0.000000000000E+00
	Si38	Si	-1.805900000000E-01	-4.691300000000E-01	0.000000000000E+00
	Si39	Si	3.194100000000E-01	-3.087000000000E-02	0.000000000000E+00
	Si40	Si	-3.194100000000E-01	3.087000000000E-02	0.000000000000E+00
	Si41	Si	1.697300000000E-01	1.807600000000E-01	0.000000000000E+00
	Si42	Si	-1.697300000000E-01	-1.807600000000E-01	0.000000000000E+00
	Si43	Si	-3.302700000000E-01	3.192400000000E-01	0.000000000000E+00
	Si44	Si	3.302700000000E-01	-3.192400000000E-01	0.000000000000E+00
	Si45	Si	3.192400000000E-01	3.302700000000E-01	0.000000000000E+00
	Si46	Si	-3.192400000000E-01	-3.302700000000E-01	0.000000000000E+00
	Si47	Si	1.807600000000E-01	-1.697300000000E-01	0.000000000000E+00
	Si48	Si	-1.807600000000E-01	1.697300000000E-01	0.000000000000E+00
	O49	O	1.220300000000E-01	-1.854900000000E-01	1.113600000000E-01
	O50	O	-1.220300000000E-01	1.854900000000E-01	1.113600000000E-01
	O51	O	-3.779700000000E-01	-3.145100000000E-01	-1.113600000000E-01
	O52	O	3.779700000000E-01	3.145100000000E-01	-1.113600000000E-01
	O53	O	-3.145100000000E-01	3.779700000000E-01	-1.113600000000E-01
	O54	O	3.145100000000E-01	-3.779700000000E-01	-1.113600000000E-01
	O55	O	-1.854900000000E-01	-1.220300000000E-01	1.113600000000E-01
	O56	O	1.854900000000E-01	1.220300000000E-01	1.113600000000E-01
	O57	O	-1.220300000000E-01	1.854900000000E-01	-1.113600000000E-01
	O58	O	1.220300000000E-01	-1.854900000000E-01	-1.113600000000E-01
	O59	O	3.779700000000E-01	3.145100000000E-01	1.113600000000E-01
	O60	O	-3.779700000000E-01	-3.145100000000E-01	1.113600000000E-01
	O61	O	3.145100000000E-01	-3.779700000000E-01	1.113600000000E-01
	O62	O	-3.145100000000E-01	3.779700000000E-01	1.113600000000E-01
	O63	O	1.854900000000E-01	1.220300000000E-01	-1.113600000000E-01
	O64	O	-1.854900000000E-01	-1.220300000000E-01	-1.113600000000E-01
	O65	O	3.776000000000E-02	-2.303100000000E-01	2.946900000000E-01
	O66	O	-3.776000000000E-02	2.303100000000E-01	2.946900000000E-01
	O67	O	-4.622400000000E-01	-2.696900000000E-01	-2.946900000000E-01
	O68	O	4.622400000000E-01	2.696900000000E-01	-2.946900000000E-01
	O69	O	-2.696900000000E-01	4.622400000000E-01	-2.946900000000E-01
	O70	O	2.696900000000E-01	-4.622400000000E-01	-2.946900000000E-01
	O71	O	-2.303100000000E-01	-3.776000000000E-02	2.946900000000E-01
	O72	O	2.303100000000E-01	3.776000000000E-02	2.946900000000E-01
	O73	O	-3.776000000000E-02	2.303100000000E-01	-2.946900000000E-01
	O74	O	3.776000000000E-02	-2.303100000000E-01	-2.946900000000E-01
	O75	O	4.622400000000E-01	2.696900000000E-01	2.946900000000E-01
	O76	O	-4.622400000000E-01	-2.696900000000E-01	2.946900000000E-01
	O77	O	2.696900000000E-01	-4.622400000000E-01	2.946900000000E-01
	O78	O	-2.696900000000E-01	4.622400000000E-01	2.946900000000E-01
	O79	O	2.303100000000E-01	3.776000000000E-02	-2.946900000000E-01
	O80	O	-2.303100000000E-01	-3.776000000000E-02	-2.946900000000E-01
	O81	O	1.759300000000E-01	-3.240700000000E-01	2.271800000000E-01
	O82	O	-1.759300000000E-01	3.240700000000E-01	2.271800000000E-01
	O83	O	-3.240700000000E-01	-1.759300000000E-01	-2.271800000000E-01
	O84	O	3.240700000000E-01	1.759300000000E-01	-2.271800000000E-01
	O85	O	-1.759300000000E-01	3.240700000000E-01	-2.271800000000E-01
	O86	O	1.759300000000E-01	-3.240700000000E-01	-2.271800000000E-01
	O87	O	-3.240700000000E-01	-1.759300000000E-01	2.271800000000E-01
	O88	O	3.240700000000E-01	1.759300000000E-01	2.271800000000E-01
	O89	O	2.880000000000E-02	-3.305100000000E-01	1.115700000000E-01
	O90	O	-2.880000000000E-02	3.305100000000E-01	1.115700000000E-01
	O91	O	-4.712000000000E-01	-1.694900000000E-01	-1.115700000000E-01
	O92	O	4.712000000000E-01	1.694900000000E-01	-1.115700000000E-01
	O93	O	-1.694900000000E-01	4.712000000000E-01	-1.115700000000E-01
	O94	O	1.694900000000E-01	-4.712000000000E-01	-1.115700000000E-01
	O95	O	-3.305100000000E-01	-2.880000000000E-02	1.115700000000E-01
	O96	O	3.305100000000E-01	2.880000000000E-02	1.115700000000E-01
	O97	O	-2.880000000000E-02	3.305100000000E-01	-1.115700000000E-01
	O98	O	2.880000000000E-02	-3.305100000000E-01	-1.115700000000E-01
	O99	O	4.712000000000E-01	1.694900000000E-01	1.115700000000E-01
	O100	O	-4.712000000000E-01	-1.694900000000E-01	1.115700000000E-01
	O101	O	1.694900000000E-01	-4.712000000000E-01	1.115700000000E-01
	O102	O	-1.694900000000E-01	4.712000000000E-01	1.115700000000E-01
	O103	O	3.305100000000E-01	2.880000000000E-02	-1.115700000000E-01
	O104	O	-3.305100000000E-01	-2.880000000000E-02	-1.115700000000E-01
	O105	O	7.136000000000E-02	2.210600000000E-01	0.000000000000E+00
	O106	O	-7.136000000000E-02	-2.210600000000E-01	0.000000000000E+00
	O107	O	-4.286400000000E-01	2.789400000000E-01	0.000000000000E+00
	O108	O	4.286400000000E-01	-2.789400000000E-01	0.000000000000E+00
	O109	O	2.789400000000E-01	4.286400000000E-01	0.000000000000E+00
	O110	O	-2.789400000000E-01	-4.286400000000E-01	0.000000000000E+00
	O111	O	2.210600000000E-01	-7.136000000000E-02	0.000000000000E+00
	O112	O	-2.210600000000E-01	7.136000000000E-02	0.000000000000E+00
	O113	O	1.098400000000E-01	3.901600000000E-01	0.000000000000E+00
	O114	O	-1.098400000000E-01	-3.901600000000E-01	0.000000000000E+00
	O115	O	-3.901600000000E-01	1.098400000000E-01	0.000000000000E+00
	O116	O	3.901600000000E-01	-1.098400000000E-01	0.000000000000E+00
	O117	O	2.387200000000E-01	2.612800000000E-01	0.000000000000E+00
	O118	O	-2.387200000000E-01	-2.612800000000E-01	0.000000000000E+00
	O119	O	-2.612800000000E-01	2.387200000000E-01	0.000000000000E+00
	O120	O	2.612800000000E-01	-2.387200000000E-01	0.000000000000E+00
	O121	O	9.964000000000E-02	-7.166000000000E-02	3.398600000000E-01
	O122	O	-9.964000000000E-02	7.166000000000E-02	3.398600000000E-01
	O123	O	-4.003600000000E-01	-4.283400000000E-01	-3.398600000000E-01
	O124	O	4.003600000000E-01	4.283400000000E-01	-3.398600000000E-01
	O125	O	-4.283400000000E-01	4.003600000000E-01	-3.398600000000E-01
	O126	O	4.283400000000E-01	-4.003600000000E-01	-3.398600000000E-01
	O127	O	-7.166000000000E-02	-9.964000000000E-02	3.398600000000E-01
	O128	O	7.166000000000E-02	9.964000000000E-02	3.398600000000E-01
	O129	O	-9.964000000000E-02	7.166000000000E-02	-3.398600000000E-01
	O130	O	9.964000000000E-02	-7.166000000000E-02	-3.398600000000E-01
	O131	O	4.003600000000E-01	4.283400000000E-01	3.398600000000E-01
	O132	O	-4.003600000000E-01	-4.283400000000E-01	3.398600000000E-01
	O133	O	4.283400000000E-01	-4.003600000000E-01	3.398600000000E-01
	O134	O	-4.283400000000E-01	4.003600000000E-01	3.398600000000E-01
	O135	O	7.166000000000E-02	9.964000000000E-02	-3.398600000000E-01
	O136	O	-7.166000000000E-02	-9.964000000000E-02	-3.398600000000E-01
	O137	O	2.738000000000E-02	-1.676400000000E-01	-5.000000000000E-01
	O138	O	-2.738000000000E-02	1.676400000000E-01	-5.000000000000E-01
	O139	O	-4.726200000000E-01	-3.323600000000E-01	-5.000000000000E-01
	O140	O	4.726200000000E-01	3.323600000000E-01	-5.000000000000E-01
	O141	O	-3.323600000000E-01	4.726200000000E-01	-5.000000000000E-01
	O142	O	3.323600000000E-01	-4.726200000000E-01	-5.000000000000E-01
	O143	O	-1.676400000000E-01	-2.738000000000E-02	-5.000000000000E-01
	O144	O	1.676400000000E-01	2.738000000000E-02	-5.000000000000E-01


data_ IRN
_chemical_name_common		'IRN'
_cell_length_a		15.81820120
_cell_length_b		15.81820120
_cell_length_c		15.81820120
_cell_angle_alpha		103.245708
_cell_angle_beta		108.616612
_cell_angle_gamma		116.848853
_space group_name_H-M_alt		'P 1'
_space_group_IT_number		1

loop_
	_atom_site_label
	_atom_site_type_symbol
	_atom_site_fract_x
	_atom_site_fract_y
	_atom_site_fract_z
	Si1	Si	2.973700000000E-01	4.120200000000E-01	3.536900000000E-01
	Si2	Si	5.833000000000E-02	-5.632000000000E-02	-3.536900000000E-01
	Si3	Si	-2.973700000000E-01	5.632000000000E-02	1.146500000000E-01
	Si4	Si	-5.833000000000E-02	-4.120200000000E-01	-1.146500000000E-01
	Si5	Si	-2.973700000000E-01	-4.120200000000E-01	-3.536900000000E-01
	Si6	Si	-5.833000000000E-02	5.632000000000E-02	3.536900000000E-01
	Si7	Si	2.973700000000E-01	-5.632000000000E-02	-1.146500000000E-01
	Si8	Si	5.833000000000E-02	4.120200000000E-01	1.146500000000E-01
	Si9	Si	-4.402500000000E-01	3.445300000000E-01	-4.533400000000E-01
	Si10	Si	-2.021300000000E-01	1.309000000000E-02	4.533400000000E-01
	Si11	Si	4.402500000000E-01	-1.309000000000E-02	-2.152200000000E-01
	Si12	Si	2.021300000000E-01	-3.445300000000E-01	2.152200000000E-01
	Si13	Si	4.402500000000E-01	-3.445300000000E-01	4.533400000000E-01
	Si14	Si	2.021300000000E-01	-1.309000000000E-02	-4.533400000000E-01
	Si15	Si	-4.402500000000E-01	1.309000000000E-02	2.152200000000E-01
	Si16	Si	-2.021300000000E-01	3.445300000000E-01	-2.152200000000E-01
	Si17	Si	3.269500000000E-01	2.327000000000E-01	3.687100000000E-01
	Si18	Si	-1.360100000000E-01	-4.176000000000E-02	-3.687100000000E-01
	Si19	Si	-3.269500000000E-01	4.176000000000E-02	-9.425000000000E-02
	Si20	Si	1.360100000000E-01	-2.327000000000E-01	9.425000000000E-02
	Si21	Si	-3.269500000000E-01	-2.327000000000E-01	-3.687100000000E-01
	Si22	Si	1.360100000000E-01	4.176000000000E-02	3.687100000000E-01
	Si23	Si	3.269500000000E-01	-4.176000000000E-02	9.425000000000E-02
	Si24	Si	-1.360100000000E-01	2.327000000000E-01	-9.425000000000E-02
	Si25	Si	4.055000000000E-01	-3.472800000000E-01	2.472200000000E-01
	Si26	Si	4.055000000000E-01	1.582800000000E-01	-2.472200000000E-01
	Si27	Si	-4.055000000000E-01	-1.582800000000E-01	2.472200000000E-01
	Si28	Si	-4.055000000000E-01	3.472800000000E-01	-2.472200000000E-01
	Si29	Si	2.632100000000E-01	4.116700000000E-01	1.484600000000E-01
	Si30	Si	2.632100000000E-01	1.147500000000E-01	-1.484600000000E-01
	Si31	Si	-2.632100000000E-01	-1.147500000000E-01	1.484600000000E-01
	Si32	Si	-2.632100000000E-01	-4.116700000000E-01	-1.484600000000E-01
	Si33	Si	-2.374700000000E-01	3.436700000000E-01	-4.188600000000E-01
	Si34	Si	-2.374700000000E-01	1.813900000000E-01	4.188600000000E-01
	Si35	Si	2.374700000000E-01	-1.813900000000E-01	-4.188600000000E-01
	Si36	Si	2.374700000000E-01	-3.436700000000E-01	4.188600000000E-01
	Si37	Si	-9.292000000000E-02	-4.098900000000E-01	-3.169700000000E-01
	Si38	Si	-9.292000000000E-02	2.240500000000E-01	3.169700000000E-01
	Si39	Si	9.292000000000E-02	-2.240500000000E-01	-3.169700000000E-01
	Si40	Si	9.292000000000E-02	4.098900000000E-01	3.169700000000E-01
	Si41	Si	2.348600000000E-01	9.328000000000E-02	1.415800000000E-01
	Si42	Si	-4.830000000000E-02	9.328000000000E-02	-1.415800000000E-01
	Si43	Si	-2.348600000000E-01	-9.328000000000E-02	-1.415800000000E-01
	Si44	Si	4.830000000000E-02	-9.328000000000E-02	1.415800000000E-01
	Si45	Si	2.066200000000E-01	2.066200000000E-01	-8.855558299207E-19
	Si46	Si	-2.066200000000E-01	-2.066200000000E-01	1.876802990859E-17
	O47	O	3.915400000000E-01	-4.661300000000E-01	4.308100000000E-01
	O48	O	1.030600000000E-01	-3.927000000000E-02	-4.308100000000E-01
	O49	O	-3.915400000000E-01	3.927000000000E-02	1.423300000000E-01
	O50	O	-1.030600000000E-01	4.661300000000E-01	-1.423300000000E-01
	O51	O	-3.915400000000E-01	4.661300000000E-01	-4.308100000000E-01
	O52	O	-1.030600000000E-01	3.927000000000E-02	4.308100000000E-01
	O53	O	3.915400000000E-01	-3.927000000000E-02	-1.423300000000E-01
	O54	O	1.030600000000E-01	-4.661300000000E-01	1.423300000000E-01
	O55	O	2.884600000000E-01	3.912100000000E-01	2.457700000000E-01
	O56	O	1.454400000000E-01	4.269000000000E-02	-2.457700000000E-01
	O57	O	-2.884600000000E-01	-4.269000000000E-02	1.027500000000E-01
	O58	O	-1.454400000000E-01	-3.912100000000E-01	-1.027500000000E-01
	O59	O	-2.884600000000E-01	-3.912100000000E-01	-2.457700000000E-01
	O60	O	-1.454400000000E-01	-4.269000000000E-02	2.457700000000E-01
	O61	O	2.884600000000E-01	4.269000000000E-02	-1.027500000000E-01
	O62	O	1.454400000000E-01	3.912100000000E-01	1.027500000000E-01
	O63	O	3.252200000000E-01	3.362600000000E-01	3.899600000000E-01
	O64	O	-5.370000000000E-02	-6.474000000000E-02	-3.899600000000E-01
	O65	O	-3.252200000000E-01	6.474000000000E-02	1.104000000000E-02
	O66	O	5.370000000000E-02	-3.362600000000E-01	-1.104000000000E-02
	O67	O	-3.252200000000E-01	-3.362600000000E-01	-3.899600000000E-01
	O68	O	5.370000000000E-02	6.474000000000E-02	3.899600000000E-01
	O69	O	3.252200000000E-01	-6.474000000000E-02	-1.104000000000E-02
	O70	O	-5.370000000000E-02	3.362600000000E-01	1.104000000000E-02
	O71	O	1.823000000000E-01	3.834000000000E-01	3.442200000000E-01
	O72	O	3.918000000000E-02	-1.619200000000E-01	-3.442200000000E-01
	O73	O	-1.823000000000E-01	1.619200000000E-01	2.011000000000E-01
	O74	O	-3.918000000000E-02	-3.834000000000E-01	-2.011000000000E-01
	O75	O	-1.823000000000E-01	-3.834000000000E-01	-3.442200000000E-01
	O76	O	-3.918000000000E-02	1.619200000000E-01	3.442200000000E-01
	O77	O	1.823000000000E-01	-1.619200000000E-01	-2.011000000000E-01
	O78	O	3.918000000000E-02	3.834000000000E-01	2.011000000000E-01
	O79	O	-3.579000000000E-01	3.169600000000E-01	-4.675600000000E-01
	O80	O	-2.154800000000E-01	1.096600000000E-01	4.675600000000E-01
	O81	O	3.579000000000E-01	-1.096600000000E-01	-3.251400000000E-01
	O82	O	2.154800000000E-01	-3.169600000000E-01	3.251400000000E-01
	O83	O	3.579000000000E-01	-3.169600000000E-01	4.675600000000E-01
	O84	O	2.154800000000E-01	-1.096600000000E-01	-4.675600000000E-01
	O85	O	-3.579000000000E-01	1.096600000000E-01	3.251400000000E-01
	O86	O	-2.154800000000E-01	3.169600000000E-01	-3.251400000000E-01
	O87	O	-4.554200000000E-01	3.251700000000E-01	-3.621100000000E-01
	O88	O	-3.127200000000E-01	-9.331000000000E-02	3.621100000000E-01
	O89	O	4.554200000000E-01	9.331000000000E-02	-2.194100000000E-01
	O90	O	3.127200000000E-01	-3.251700000000E-01	2.194100000000E-01
	O91	O	4.554200000000E-01	-3.251700000000E-01	3.621100000000E-01
	O92	O	3.127200000000E-01	9.331000000000E-02	-3.621100000000E-01
	O93	O	-4.554200000000E-01	-9.331000000000E-02	2.194100000000E-01
	O94	O	-3.127200000000E-01	3.251700000000E-01	-2.194100000000E-01
	O95	O	4.454400000000E-01	2.676500000000E-01	4.451900000000E-01
	O96	O	-1.775400000000E-01	2.500000000000E-04	-4.451900000000E-01
	O97	O	-4.454400000000E-01	-2.500000000000E-04	-1.777900000000E-01
	O98	O	1.775400000000E-01	-2.676500000000E-01	1.777900000000E-01
	O99	O	-4.454400000000E-01	-2.676500000000E-01	-4.451900000000E-01
	O100	O	1.775400000000E-01	-2.500000000000E-04	4.451900000000E-01
	O101	O	4.454400000000E-01	2.500000000000E-04	1.777900000000E-01
	O102	O	-1.775400000000E-01	2.676500000000E-01	-1.777900000000E-01
	O103	O	1.170900000000E-01	1.094917330006E-18	1.170900000000E-01
	O104	O	-1.170900000000E-01	3.347721890874E-18	-1.170900000000E-01
	O105	O	3.007500000000E-01	1.787800000000E-01	2.560300000000E-01
	O106	O	-7.725000000000E-02	4.472000000000E-02	-2.560300000000E-01
	O107	O	-3.007500000000E-01	-4.472000000000E-02	-1.219700000000E-01
	O108	O	7.725000000000E-02	-1.787800000000E-01	1.219700000000E-01
	O109	O	-3.007500000000E-01	-1.787800000000E-01	-2.560300000000E-01
	O110	O	7.725000000000E-02	-4.472000000000E-02	2.560300000000E-01
	O111	O	3.007500000000E-01	4.472000000000E-02	1.219700000000E-01
	O112	O	-7.725000000000E-02	1.787800000000E-01	-1.219700000000E-01
	O113	O	2.216700000000E-01	1.505200000000E-01	7.115000000000E-02
	O114	O	7.937000000000E-02	1.505200000000E-01	-7.115000000000E-02
	O115	O	-2.216700000000E-01	-1.505200000000E-01	-7.115000000000E-02
	O116	O	-7.937000000000E-02	-1.505200000000E-01	7.115000000000E-02
	O117	O	2.384700000000E-01	1.505000000000E-01	3.889700000000E-01
	O118	O	-2.384700000000E-01	-1.505000000000E-01	-3.889700000000E-01
	O119	O	-2.384700000000E-01	1.505000000000E-01	-8.797000000000E-02
	O120	O	2.384700000000E-01	-1.505000000000E-01	8.797000000000E-02
	O121	O	-1.499700000000E-01	4.667600000000E-01	-3.832700000000E-01
	O122	O	-1.499700000000E-01	2.333000000000E-01	3.832700000000E-01
	O123	O	1.499700000000E-01	-2.333000000000E-01	-3.832700000000E-01
	O124	O	1.499700000000E-01	-4.667600000000E-01	3.832700000000E-01
	O125	O	-2.250900000000E-01	2.749100000000E-01	5.000000000000E-01
	O126	O	2.250900000000E-01	-2.749100000000E-01	-5.000000000000E-01
	O127	O	3.539900000000E-01	-4.683400000000E-01	1.776700000000E-01
	O128	O	3.539900000000E-01	1.763200000000E-01	-1.776700000000E-01
	O129	O	-3.539900000000E-01	-1.763200000000E-01	1.776700000000E-01
	O130	O	-3.539900000000E-01	4.683400000000E-01	-1.776700000000E-01
	O131	O	-5.000000000000E-01	-2.716700000000E-01	2.283300000000E-01
	O132	O	5.000000000000E-01	2.716700000000E-01	-2.283300000000E-01
	O133	O	2.635100000000E-01	3.300300000000E-01	6.652000000000E-02
	O134	O	2.635100000000E-01	1.969900000000E-01	-6.652000000000E-02
	O135	O	-2.635100000000E-01	-1.969900000000E-01	6.652000000000E-02
	O136	O	-2.635100000000E-01	-3.300300000000E-01	-6.652000000000E-02
	O137	O	-1.546284927752E-17	-3.409400000000E-01	-3.409400000000E-01
	O138	O	-3.546558780731E-17	3.409400000000E-01	3.409400000000E-01


data_ ITE
_chemical_name_common		'ITE'
_cell_length_a		11.47612113
_cell_length_b		11.47612113
_cell_length_c		20.00900000
_cell_angle_alpha		90.000000
_cell_angle_beta		90.000000
_cell_angle_gamma		129.426623
_space group_name_H-M_alt		'P 1'
_space_group_IT_number		1

loop_
	_atom_site_label
	_atom_site_type_symbol
	_atom_site_fract_x
	_atom_site_fract_y
	_atom_site_fract_z
	O1	O	1.287000000000E-01	-3.941000000000E-01	1.438000000000E-01
	O2	O	-1.287000000000E-01	3.941000000000E-01	-3.562000000000E-01
	O3	O	3.941000000000E-01	-1.287000000000E-01	-1.438000000000E-01
	O4	O	-3.941000000000E-01	1.287000000000E-01	3.562000000000E-01
	O5	O	-1.287000000000E-01	3.941000000000E-01	-1.438000000000E-01
	O6	O	1.287000000000E-01	-3.941000000000E-01	3.562000000000E-01
	O7	O	-3.941000000000E-01	1.287000000000E-01	1.438000000000E-01
	O8	O	3.941000000000E-01	-1.287000000000E-01	-3.562000000000E-01
	O9	O	2.664000000000E-01	-3.964000000000E-01	2.500000000000E-01
	O10	O	-2.664000000000E-01	3.964000000000E-01	-2.500000000000E-01
	O11	O	3.964000000000E-01	-2.664000000000E-01	-2.500000000000E-01
	O12	O	-3.964000000000E-01	2.664000000000E-01	2.500000000000E-01
	O13	O	4.203000000000E-01	-1.679000000000E-01	1.640000000000E-01
	O14	O	-4.203000000000E-01	1.679000000000E-01	-3.360000000000E-01
	O15	O	1.679000000000E-01	-4.203000000000E-01	-1.640000000000E-01
	O16	O	-1.679000000000E-01	4.203000000000E-01	3.360000000000E-01
	O17	O	-4.203000000000E-01	1.679000000000E-01	-1.640000000000E-01
	O18	O	4.203000000000E-01	-1.679000000000E-01	3.360000000000E-01
	O19	O	-1.679000000000E-01	4.203000000000E-01	1.640000000000E-01
	O20	O	1.679000000000E-01	-4.203000000000E-01	-3.360000000000E-01
	O21	O	3.290000000000E-01	-4.376000000000E-01	1.288000000000E-01
	O22	O	-3.290000000000E-01	4.376000000000E-01	-3.712000000000E-01
	O23	O	4.376000000000E-01	-3.290000000000E-01	-1.288000000000E-01
	O24	O	-4.376000000000E-01	3.290000000000E-01	3.712000000000E-01
	O25	O	-3.290000000000E-01	4.376000000000E-01	-1.288000000000E-01
	O26	O	3.290000000000E-01	-4.376000000000E-01	3.712000000000E-01
	O27	O	-4.376000000000E-01	3.290000000000E-01	1.288000000000E-01
	O28	O	4.376000000000E-01	-3.290000000000E-01	-3.712000000000E-01
	O29	O	-4.013000000000E-01	4.013000000000E-01	0.000000000000E+00
	O30	O	4.013000000000E-01	-4.013000000000E-01	-5.000000000000E-01
	O31	O	4.013000000000E-01	-4.013000000000E-01	0.000000000000E+00
	O32	O	-4.013000000000E-01	4.013000000000E-01	-5.000000000000E-01
	O33	O	4.222000000000E-01	4.222000000000E-01	7.580000000000E-02
	O34	O	-4.222000000000E-01	-4.222000000000E-01	-4.242000000000E-01
	O35	O	-4.222000000000E-01	-4.222000000000E-01	-7.580000000000E-02
	O36	O	4.222000000000E-01	4.222000000000E-01	4.242000000000E-01
	O37	O	3.367000000000E-01	1.527000000000E-01	4.360000000000E-02
	O38	O	-3.367000000000E-01	-1.527000000000E-01	-4.564000000000E-01
	O39	O	-1.527000000000E-01	-3.367000000000E-01	-4.360000000000E-02
	O40	O	1.527000000000E-01	3.367000000000E-01	4.564000000000E-01
	O41	O	-3.367000000000E-01	-1.527000000000E-01	-4.360000000000E-02
	O42	O	3.367000000000E-01	1.527000000000E-01	4.564000000000E-01
	O43	O	1.527000000000E-01	3.367000000000E-01	4.360000000000E-02
	O44	O	-1.527000000000E-01	-3.367000000000E-01	-4.564000000000E-01
	O45	O	-3.967000000000E-01	-5.070000000000E-02	5.880000000000E-02
	O46	O	3.967000000000E-01	5.070000000000E-02	-4.412000000000E-01
	O47	O	5.070000000000E-02	3.967000000000E-01	-5.880000000000E-02
	O48	O	-5.070000000000E-02	-3.967000000000E-01	4.412000000000E-01
	O49	O	3.967000000000E-01	5.070000000000E-02	-5.880000000000E-02
	O50	O	-3.967000000000E-01	-5.070000000000E-02	4.412000000000E-01
	O51	O	-5.070000000000E-02	-3.967000000000E-01	5.880000000000E-02
	O52	O	5.070000000000E-02	3.967000000000E-01	-4.412000000000E-01
	O53	O	3.699000000000E-01	-5.370000000000E-02	6.370000000000E-02
	O54	O	-3.699000000000E-01	5.370000000000E-02	-4.363000000000E-01
	O55	O	5.370000000000E-02	-3.699000000000E-01	-6.370000000000E-02
	O56	O	-5.370000000000E-02	3.699000000000E-01	4.363000000000E-01
	O57	O	-3.699000000000E-01	5.370000000000E-02	-6.370000000000E-02
	O58	O	3.699000000000E-01	-5.370000000000E-02	4.363000000000E-01
	O59	O	-5.370000000000E-02	3.699000000000E-01	6.370000000000E-02
	O60	O	5.370000000000E-02	-3.699000000000E-01	-4.363000000000E-01
	O61	O	1.278000000000E-01	-1.278000000000E-01	0.000000000000E+00
	O62	O	-1.278000000000E-01	1.278000000000E-01	-5.000000000000E-01
	O63	O	-1.278000000000E-01	1.278000000000E-01	0.000000000000E+00
	O64	O	1.278000000000E-01	-1.278000000000E-01	-5.000000000000E-01
	Si65	Si	2.860000000000E-01	-3.490000000000E-01	1.717000000000E-01
	Si66	Si	-2.860000000000E-01	3.490000000000E-01	-3.283000000000E-01
	Si67	Si	3.490000000000E-01	-2.860000000000E-01	-1.717000000000E-01
	Si68	Si	-3.490000000000E-01	2.860000000000E-01	3.283000000000E-01
	Si69	Si	-2.860000000000E-01	3.490000000000E-01	-1.717000000000E-01
	Si70	Si	2.860000000000E-01	-3.490000000000E-01	3.283000000000E-01
	Si71	Si	-3.490000000000E-01	2.860000000000E-01	1.717000000000E-01
	Si72	Si	3.490000000000E-01	-2.860000000000E-01	-3.283000000000E-01
	Si73	Si	4.799000000000E-01	3.265000000000E-01	6.200000000000E-02
	Si74	Si	-4.799000000000E-01	-3.265000000000E-01	-4.380000000000E-01
	Si75	Si	-3.265000000000E-01	-4.799000000000E-01	-6.200000000000E-02
	Si76	Si	3.265000000000E-01	4.799000000000E-01	4.380000000000E-01
	Si77	Si	-4.799000000000E-01	-3.265000000000E-01	-6.200000000000E-02
	Si78	Si	4.799000000000E-01	3.265000000000E-01	4.380000000000E-01
	Si79	Si	3.265000000000E-01	4.799000000000E-01	6.200000000000E-02
	Si80	Si	-3.265000000000E-01	-4.799000000000E-01	-4.380000000000E-01
	Si81	Si	4.999000000000E-01	-3.550000000000E-02	1.076000000000E-01
	Si82	Si	-4.999000000000E-01	3.550000000000E-02	-3.924000000000E-01
	Si83	Si	3.550000000000E-02	-4.999000000000E-01	-1.076000000000E-01
	Si84	Si	-3.550000000000E-02	4.999000000000E-01	3.924000000000E-01
	Si85	Si	-4.999000000000E-01	3.550000000000E-02	-1.076000000000E-01
	Si86	Si	4.999000000000E-01	-3.550000000000E-02	3.924000000000E-01
	Si87	Si	-3.550000000000E-02	4.999000000000E-01	1.076000000000E-01
	Si88	Si	3.550000000000E-02	-4.999000000000E-01	-3.924000000000E-01
	Si89	Si	3.077000000000E-01	5.300000000000E-03	1.210000000000E-02
	Si90	Si	-3.077000000000E-01	-5.300000000000E-03	-4.879000000000E-01
	Si91	Si	-5.300000000000E-03	-3.077000000000E-01	-1.210000000000E-02
	Si92	Si	5.300000000000E-03	3.077000000000E-01	4.879000000000E-01
	Si93	Si	-3.077000000000E-01	-5.300000000000E-03	-1.210000000000E-02
	Si94	Si	3.077000000000E-01	5.300000000000E-03	4.879000000000E-01
	Si95	Si	5.300000000000E-03	3.077000000000E-01	1.210000000000E-02
	Si96	Si	-5.300000000000E-03	-3.077000000000E-01	-4.879000000000E-01


data_ ITH
_chemical_name_common		'ITH'
_cell_length_a		12.56600000
_cell_length_b		12.41900906
_cell_length_c		12.41900906
_cell_angle_alpha		56.006567
_cell_angle_beta		90.000000
_cell_angle_gamma		90.000000
_space group_name_H-M_alt		'P 1'
_space_group_IT_number		1

loop_
	_atom_site_label
	_atom_site_type_symbol
	_atom_site_fract_x
	_atom_site_fract_y
	_atom_site_fract_z
	O1	O	-3.179000000000E-01	-2.705000000000E-01	-4.490000000000E-02
	O2	O	3.179000000000E-01	-4.490000000000E-02	-2.705000000000E-01
	O3	O	3.179000000000E-01	-2.705000000000E-01	-4.490000000000E-02
	O4	O	-3.179000000000E-01	-4.490000000000E-02	-2.705000000000E-01
	O5	O	-3.598000000000E-01	3.490000000000E-02	3.490000000000E-02
	O6	O	3.598000000000E-01	3.490000000000E-02	3.490000000000E-02
	O7	O	-2.995000000000E-01	-2.027000000000E-01	1.199000000000E-01
	O8	O	2.995000000000E-01	1.199000000000E-01	-2.027000000000E-01
	O9	O	2.995000000000E-01	-2.027000000000E-01	1.199000000000E-01
	O10	O	-2.995000000000E-01	1.199000000000E-01	-2.027000000000E-01
	O11	O	-3.951000000000E-01	-6.900000000000E-03	3.829000000000E-01
	O12	O	3.951000000000E-01	3.829000000000E-01	-6.900000000000E-03
	O13	O	3.951000000000E-01	-6.900000000000E-03	3.829000000000E-01
	O14	O	-3.951000000000E-01	3.829000000000E-01	-6.900000000000E-03
	O15	O	-1.469000000000E-01	3.558000000000E-01	3.558000000000E-01
	O16	O	1.469000000000E-01	3.558000000000E-01	3.558000000000E-01
	O17	O	0.000000000000E+00	1.832000000000E-01	-4.998000000000E-01
	O18	O	0.000000000000E+00	-4.998000000000E-01	1.832000000000E-01
	O19	O	-3.525000000000E-01	-1.442000000000E-01	2.858000000000E-01
	O20	O	3.525000000000E-01	2.858000000000E-01	-1.442000000000E-01
	O21	O	3.525000000000E-01	-1.442000000000E-01	2.858000000000E-01
	O22	O	-3.525000000000E-01	2.858000000000E-01	-1.442000000000E-01
	O23	O	-1.962000000000E-01	-5.540000000000E-02	3.576000000000E-01
	O24	O	1.962000000000E-01	3.576000000000E-01	-5.540000000000E-02
	O25	O	1.962000000000E-01	-5.540000000000E-02	3.576000000000E-01
	O26	O	-1.962000000000E-01	3.576000000000E-01	-5.540000000000E-02
	O27	O	-3.186000000000E-01	-2.428000000000E-01	-4.674000000000E-01
	O28	O	3.186000000000E-01	-4.674000000000E-01	-2.428000000000E-01
	O29	O	3.186000000000E-01	-2.428000000000E-01	-4.674000000000E-01
	O30	O	-3.186000000000E-01	-4.674000000000E-01	-2.428000000000E-01
	O31	O	-1.606000000000E-01	1.186000000000E-01	4.122000000000E-01
	O32	O	1.606000000000E-01	4.122000000000E-01	1.186000000000E-01
	O33	O	1.606000000000E-01	1.186000000000E-01	4.122000000000E-01
	O34	O	-1.606000000000E-01	4.122000000000E-01	1.186000000000E-01
	O35	O	-5.000000000000E-01	-1.544000000000E-01	1.418000000000E-01
	O36	O	-5.000000000000E-01	1.418000000000E-01	-1.544000000000E-01
	O37	O	-1.902000000000E-01	-4.033000000000E-01	1.585000000000E-01
	O38	O	1.902000000000E-01	1.585000000000E-01	-4.033000000000E-01
	O39	O	1.902000000000E-01	-4.033000000000E-01	1.585000000000E-01
	O40	O	-1.902000000000E-01	1.585000000000E-01	-4.033000000000E-01
	O41	O	-5.000000000000E-01	3.817000000000E-01	3.817000000000E-01
	O42	O	0.000000000000E+00	1.380000000000E-02	3.666000000000E-01
	O43	O	0.000000000000E+00	3.666000000000E-01	1.380000000000E-02
	O44	O	3.956000000000E-01	1.919000000000E-01	-4.195000000000E-01
	O45	O	-3.956000000000E-01	-4.195000000000E-01	1.919000000000E-01
	O46	O	-3.956000000000E-01	1.919000000000E-01	-4.195000000000E-01
	O47	O	3.956000000000E-01	-4.195000000000E-01	1.919000000000E-01
	O48	O	-3.731000000000E-01	-2.559000000000E-01	-2.559000000000E-01
	O49	O	3.731000000000E-01	-2.559000000000E-01	-2.559000000000E-01
	O50	O	-5.000000000000E-01	1.913000000000E-01	1.913000000000E-01
	O51	O	-5.000000000000E-01	1.492000000000E-01	4.238000000000E-01
	O52	O	-5.000000000000E-01	4.238000000000E-01	1.492000000000E-01
	O53	O	-1.274000000000E-01	1.762000000000E-01	1.762000000000E-01
	O54	O	1.274000000000E-01	1.762000000000E-01	1.762000000000E-01
	O55	O	-5.000000000000E-01	-3.513000000000E-01	-3.513000000000E-01
	O56	O	-5.000000000000E-01	-1.606000000000E-01	-1.606000000000E-01
	Si57	Si	-5.000000000000E-01	2.281000000000E-01	4.915000000000E-01
	Si58	Si	-5.000000000000E-01	4.915000000000E-01	2.281000000000E-01
	Si59	Si	-1.212000000000E-01	6.310000000000E-02	3.287000000000E-01
	Si60	Si	1.212000000000E-01	3.287000000000E-01	6.310000000000E-02
	Si61	Si	1.212000000000E-01	6.310000000000E-02	3.287000000000E-01
	Si62	Si	-1.212000000000E-01	3.287000000000E-01	6.310000000000E-02
	Si63	Si	-3.157000000000E-01	-1.118000000000E-01	3.888000000000E-01
	Si64	Si	3.157000000000E-01	3.888000000000E-01	-1.118000000000E-01
	Si65	Si	3.157000000000E-01	-1.118000000000E-01	3.888000000000E-01
	Si66	Si	-3.157000000000E-01	3.888000000000E-01	-1.118000000000E-01
	Si67	Si	-5.000000000000E-01	8.160000000000E-02	3.450000000000E-01
	Si68	Si	-5.000000000000E-01	3.450000000000E-01	8.160000000000E-02
	Si69	Si	-1.249000000000E-01	2.048000000000E-01	4.660000000000E-01
	Si70	Si	1.249000000000E-01	4.660000000000E-01	2.048000000000E-01
	Si71	Si	1.249000000000E-01	2.048000000000E-01	4.660000000000E-01
	Si72	Si	-1.249000000000E-01	4.660000000000E-01	2.048000000000E-01
	Si73	Si	-3.000000000000E-01	-3.235000000000E-01	1.053000000000E-01
	Si74	Si	3.000000000000E-01	1.053000000000E-01	-3.235000000000E-01
	Si75	Si	3.000000000000E-01	-3.235000000000E-01	1.053000000000E-01
	Si76	Si	-3.000000000000E-01	1.053000000000E-01	-3.235000000000E-01
	Si77	Si	-3.781000000000E-01	-1.168000000000E-01	1.456000000000E-01
	Si78	Si	3.781000000000E-01	1.456000000000E-01	-1.168000000000E-01
	Si79	Si	3.781000000000E-01	-1.168000000000E-01	1.456000000000E-01
	Si80	Si	-3.781000000000E-01	1.456000000000E-01	-1.168000000000E-01
	Si81	Si	-3.778000000000E-01	-3.292000000000E-01	-3.292000000000E-01
	Si82	Si	3.778000000000E-01	-3.292000000000E-01	-3.292000000000E-01
	Si83	Si	-3.777000000000E-01	-1.826000000000E-01	-1.826000000000E-01
	Si84	Si	3.777000000000E-01	-1.826000000000E-01	-1.826000000000E-01


data_ ITT
_chemical_name_common		'ITT'
_cell_length_a		18.86773000
_cell_length_b		18.86773000
_cell_length_c		11.63328000
_cell_angle_alpha		90.000000
_cell_angle_beta		90.000000
_cell_angle_gamma		120.000000
_space group_name_H-M_alt		'P 1'
_space_group_IT_number		1

loop_
	_atom_site_label
	_atom_site_type_symbol
	_atom_site_fract_x
	_atom_site_fract_y
	_atom_site_fract_z
	Si1	Si	3.711300000000E-01	4.661200000000E-01	3.661300000000E-01
	Si2	Si	-3.711300000000E-01	-4.661200000000E-01	3.661300000000E-01
	Si3	Si	-4.661200000000E-01	-9.499000000000E-02	3.661300000000E-01
	Si4	Si	9.499000000000E-02	-3.711300000000E-01	3.661300000000E-01
	Si5	Si	-9.499000000000E-02	3.711300000000E-01	3.661300000000E-01
	Si6	Si	4.661200000000E-01	9.499000000000E-02	3.661300000000E-01
	Si7	Si	-9.499000000000E-02	-4.661200000000E-01	-3.661300000000E-01
	Si8	Si	-3.711300000000E-01	9.499000000000E-02	-3.661300000000E-01
	Si9	Si	4.661200000000E-01	3.711300000000E-01	-3.661300000000E-01
	Si10	Si	-4.661200000000E-01	-3.711300000000E-01	-3.661300000000E-01
	Si11	Si	3.711300000000E-01	-9.499000000000E-02	-3.661300000000E-01
	Si12	Si	9.499000000000E-02	4.661200000000E-01	-3.661300000000E-01
	Si13	Si	-3.711300000000E-01	-4.661200000000E-01	-3.661300000000E-01
	Si14	Si	3.711300000000E-01	4.661200000000E-01	-3.661300000000E-01
	Si15	Si	4.661200000000E-01	9.499000000000E-02	-3.661300000000E-01
	Si16	Si	-9.499000000000E-02	3.711300000000E-01	-3.661300000000E-01
	Si17	Si	9.499000000000E-02	-3.711300000000E-01	-3.661300000000E-01
	Si18	Si	-4.661200000000E-01	-9.499000000000E-02	-3.661300000000E-01
	Si19	Si	9.499000000000E-02	4.661200000000E-01	3.661300000000E-01
	Si20	Si	3.711300000000E-01	-9.499000000000E-02	3.661300000000E-01
	Si21	Si	-4.661200000000E-01	-3.711300000000E-01	3.661300000000E-01
	Si22	Si	4.661200000000E-01	3.711300000000E-01	3.661300000000E-01
	Si23	Si	-3.711300000000E-01	9.499000000000E-02	3.661300000000E-01
	Si24	Si	-9.499000000000E-02	-4.661200000000E-01	3.661300000000E-01
	Si25	Si	2.440100000000E-01	4.880200000000E-01	2.487200000000E-01
	Si26	Si	-2.440100000000E-01	-4.880200000000E-01	2.487200000000E-01
	Si27	Si	-4.880200000000E-01	-2.440100000000E-01	2.487200000000E-01
	Si28	Si	2.440100000000E-01	-2.440100000000E-01	2.487200000000E-01
	Si29	Si	-2.440100000000E-01	2.440100000000E-01	2.487200000000E-01
	Si30	Si	4.880200000000E-01	2.440100000000E-01	2.487200000000E-01
	Si31	Si	-2.440100000000E-01	-4.880200000000E-01	-2.487200000000E-01
	Si32	Si	-2.440100000000E-01	2.440100000000E-01	-2.487200000000E-01
	Si33	Si	4.880200000000E-01	2.440100000000E-01	-2.487200000000E-01
	Si34	Si	-4.880200000000E-01	-2.440100000000E-01	-2.487200000000E-01
	Si35	Si	2.440100000000E-01	-2.440100000000E-01	-2.487200000000E-01
	Si36	Si	2.440100000000E-01	4.880200000000E-01	-2.487200000000E-01
	Si37	Si	-2.810800000000E-01	4.378400000000E-01	0.000000000000E+00
	Si38	Si	2.810800000000E-01	-4.378400000000E-01	0.000000000000E+00
	Si39	Si	-4.378400000000E-01	2.810800000000E-01	0.000000000000E+00
	Si40	Si	-2.810800000000E-01	2.810800000000E-01	0.000000000000E+00
	Si41	Si	2.810800000000E-01	-2.810800000000E-01	0.000000000000E+00
	Si42	Si	4.378400000000E-01	-2.810800000000E-01	0.000000000000E+00
	Si43	Si	3.333333333333E-01	-3.333333333333E-01	3.619700000000E-01
	Si44	Si	-3.333333333333E-01	3.333333333333E-01	3.619700000000E-01
	Si45	Si	-3.333333333333E-01	3.333333333333E-01	-3.619700000000E-01
	Si46	Si	3.333333333333E-01	-3.333333333333E-01	-3.619700000000E-01
	O47	O	2.908200000000E-01	4.406000000000E-01	2.891300000000E-01
	O48	O	-2.908200000000E-01	-4.406000000000E-01	2.891300000000E-01
	O49	O	-4.406000000000E-01	-1.497800000000E-01	2.891300000000E-01
	O50	O	1.497800000000E-01	-2.908200000000E-01	2.891300000000E-01
	O51	O	-1.497800000000E-01	2.908200000000E-01	2.891300000000E-01
	O52	O	4.406000000000E-01	1.497800000000E-01	2.891300000000E-01
	O53	O	-1.497800000000E-01	-4.406000000000E-01	-2.891300000000E-01
	O54	O	-2.908200000000E-01	1.497800000000E-01	-2.891300000000E-01
	O55	O	4.406000000000E-01	2.908200000000E-01	-2.891300000000E-01
	O56	O	-4.406000000000E-01	-2.908200000000E-01	-2.891300000000E-01
	O57	O	2.908200000000E-01	-1.497800000000E-01	-2.891300000000E-01
	O58	O	1.497800000000E-01	4.406000000000E-01	-2.891300000000E-01
	O59	O	-2.908200000000E-01	-4.406000000000E-01	-2.891300000000E-01
	O60	O	2.908200000000E-01	4.406000000000E-01	-2.891300000000E-01
	O61	O	4.406000000000E-01	1.497800000000E-01	-2.891300000000E-01
	O62	O	-1.497800000000E-01	2.908200000000E-01	-2.891300000000E-01
	O63	O	1.497800000000E-01	-2.908200000000E-01	-2.891300000000E-01
	O64	O	-4.406000000000E-01	-1.497800000000E-01	-2.891300000000E-01
	O65	O	1.497800000000E-01	4.406000000000E-01	2.891300000000E-01
	O66	O	2.908200000000E-01	-1.497800000000E-01	2.891300000000E-01
	O67	O	-4.406000000000E-01	-2.908200000000E-01	2.891300000000E-01
	O68	O	4.406000000000E-01	2.908200000000E-01	2.891300000000E-01
	O69	O	-2.908200000000E-01	1.497800000000E-01	2.891300000000E-01
	O70	O	-1.497800000000E-01	-4.406000000000E-01	2.891300000000E-01
	O71	O	3.465100000000E-01	4.571200000000E-01	-5.000000000000E-01
	O72	O	-3.465100000000E-01	-4.571200000000E-01	-5.000000000000E-01
	O73	O	-4.571200000000E-01	-1.106100000000E-01	-5.000000000000E-01
	O74	O	1.106100000000E-01	-3.465100000000E-01	-5.000000000000E-01
	O75	O	-1.106100000000E-01	3.465100000000E-01	-5.000000000000E-01
	O76	O	4.571200000000E-01	1.106100000000E-01	-5.000000000000E-01
	O77	O	-1.106100000000E-01	-4.571200000000E-01	-5.000000000000E-01
	O78	O	-3.465100000000E-01	1.106100000000E-01	-5.000000000000E-01
	O79	O	4.571200000000E-01	3.465100000000E-01	-5.000000000000E-01
	O80	O	-4.571200000000E-01	-3.465100000000E-01	-5.000000000000E-01
	O81	O	3.465100000000E-01	-1.106100000000E-01	-5.000000000000E-01
	O82	O	1.106100000000E-01	4.571200000000E-01	-5.000000000000E-01
	O83	O	4.057800000000E-01	0.000000000000E+00	3.359900000000E-01
	O84	O	-4.057800000000E-01	-2.775557561563E-17	3.359900000000E-01
	O85	O	2.717815284098E-17	4.057800000000E-01	3.359900000000E-01
	O86	O	-4.057800000000E-01	-4.057800000000E-01	3.359900000000E-01
	O87	O	4.057800000000E-01	4.057800000000E-01	3.359900000000E-01
	O88	O	-2.717815284098E-17	-4.057800000000E-01	3.359900000000E-01
	O89	O	4.057800000000E-01	2.775557561563E-17	-3.359900000000E-01
	O90	O	-4.057800000000E-01	-4.057800000000E-01	-3.359900000000E-01
	O91	O	-2.717815284098E-17	4.057800000000E-01	-3.359900000000E-01
	O92	O	2.717815284098E-17	-4.057800000000E-01	-3.359900000000E-01
	O93	O	4.057800000000E-01	4.057800000000E-01	-3.359900000000E-01
	O94	O	-4.057800000000E-01	-2.775557561563E-17	-3.359900000000E-01
	O95	O	-4.408300000000E-01	1.183400000000E-01	3.399500000000E-01
	O96	O	4.408300000000E-01	-1.183400000000E-01	3.399500000000E-01
	O97	O	-1.183400000000E-01	4.408300000000E-01	3.399500000000E-01
	O98	O	-4.408300000000E-01	4.408300000000E-01	3.399500000000E-01
	O99	O	4.408300000000E-01	-4.408300000000E-01	3.399500000000E-01
	O100	O	1.183400000000E-01	-4.408300000000E-01	3.399500000000E-01
	O101	O	4.408300000000E-01	-1.183400000000E-01	-3.399500000000E-01
	O102	O	4.408300000000E-01	-4.408300000000E-01	-3.399500000000E-01
	O103	O	1.183400000000E-01	-4.408300000000E-01	-3.399500000000E-01
	O104	O	-1.183400000000E-01	4.408300000000E-01	-3.399500000000E-01
	O105	O	-4.408300000000E-01	4.408300000000E-01	-3.399500000000E-01
	O106	O	-4.408300000000E-01	1.183400000000E-01	-3.399500000000E-01
	O107	O	2.869600000000E-01	-4.260800000000E-01	3.161500000000E-01
	O108	O	-2.869600000000E-01	4.260800000000E-01	3.161500000000E-01
	O109	O	4.260800000000E-01	-2.869600000000E-01	3.161500000000E-01
	O110	O	2.869600000000E-01	-2.869600000000E-01	3.161500000000E-01
	O111	O	-2.869600000000E-01	2.869600000000E-01	3.161500000000E-01
	O112	O	-4.260800000000E-01	2.869600000000E-01	3.161500000000E-01
	O113	O	-2.869600000000E-01	4.260800000000E-01	-3.161500000000E-01
	O114	O	-2.869600000000E-01	2.869600000000E-01	-3.161500000000E-01
	O115	O	-4.260800000000E-01	2.869600000000E-01	-3.161500000000E-01
	O116	O	4.260800000000E-01	-2.869600000000E-01	-3.161500000000E-01
	O117	O	2.869600000000E-01	-2.869600000000E-01	-3.161500000000E-01
	O118	O	2.869600000000E-01	-4.260800000000E-01	-3.161500000000E-01
	O119	O	3.333333333333E-01	-3.333333333333E-01	-5.000000000000E-01
	O120	O	-3.333333333333E-01	3.333333333333E-01	-5.000000000000E-01
	O121	O	3.793000000000E-01	-2.414000000000E-01	0.000000000000E+00
	O122	O	-3.793000000000E-01	2.414000000000E-01	0.000000000000E+00
	O123	O	2.414000000000E-01	-3.793000000000E-01	0.000000000000E+00
	O124	O	3.793000000000E-01	-3.793000000000E-01	0.000000000000E+00
	O125	O	-3.793000000000E-01	3.793000000000E-01	0.000000000000E+00
	O126	O	-2.414000000000E-01	3.793000000000E-01	0.000000000000E+00
	O127	O	-2.524000000000E-01	4.952000000000E-01	1.125000000000E-01
	O128	O	2.524000000000E-01	-4.952000000000E-01	1.125000000000E-01
	O129	O	-4.952000000000E-01	2.524000000000E-01	1.125000000000E-01
	O130	O	-2.524000000000E-01	2.524000000000E-01	1.125000000000E-01
	O131	O	2.524000000000E-01	-2.524000000000E-01	1.125000000000E-01
	O132	O	4.952000000000E-01	-2.524000000000E-01	1.125000000000E-01
	O133	O	2.524000000000E-01	-4.952000000000E-01	-1.125000000000E-01
	O134	O	2.524000000000E-01	-2.524000000000E-01	-1.125000000000E-01
	O135	O	4.952000000000E-01	-2.524000000000E-01	-1.125000000000E-01
	O136	O	-4.952000000000E-01	2.524000000000E-01	-1.125000000000E-01
	O137	O	-2.524000000000E-01	2.524000000000E-01	-1.125000000000E-01
	O138	O	-2.524000000000E-01	4.952000000000E-01	-1.125000000000E-01


data_ ITW
_chemical_name_common		'ITW'
_cell_length_a		18.30418761
_cell_length_b		9.15209380
_cell_length_c		8.95400000
_cell_angle_alpha		81.146286
_cell_angle_beta		98.853714
_cell_angle_gamma		69.627081
_space group_name_H-M_alt		'P 1'
_space_group_IT_number		1

loop_
	_atom_site_label
	_atom_site_type_symbol
	_atom_site_fract_x
	_atom_site_fract_y
	_atom_site_fract_z
	O1	O	-1.367000000000E-01	-2.734000000000E-01	0.000000000000E+00
	O2	O	1.367000000000E-01	2.734000000000E-01	0.000000000000E+00
	O3	O	2.367500000000E-01	-1.453000000000E-01	-2.285000000000E-01
	O4	O	-7.265000000000E-02	4.735000000000E-01	2.285000000000E-01
	O5	O	-2.367500000000E-01	1.453000000000E-01	2.285000000000E-01
	O6	O	7.265000000000E-02	-4.735000000000E-01	-2.285000000000E-01
	O7	O	-1.583000000000E-01	-1.000000000000E-02	-1.989000000000E-01
	O8	O	-5.000000000000E-03	-3.166000000000E-01	1.989000000000E-01
	O9	O	1.583000000000E-01	1.000000000000E-02	1.989000000000E-01
	O10	O	5.000000000000E-03	3.166000000000E-01	-1.989000000000E-01
	O11	O	2.500000000000E-01	2.230935642411E-16	0.000000000000E+00
	O12	O	-1.022976882379E-17	-5.000000000000E-01	0.000000000000E+00
	O13	O	-8.690000000000E-02	-4.720000000000E-02	2.686000000000E-01
	O14	O	-2.360000000000E-02	-1.738000000000E-01	-2.686000000000E-01
	O15	O	8.690000000000E-02	4.720000000000E-02	-2.686000000000E-01
	O16	O	2.360000000000E-02	1.738000000000E-01	2.686000000000E-01
	O17	O	-1.458000000000E-01	2.380000000000E-02	-4.902000000000E-01
	O18	O	1.190000000000E-02	-2.916000000000E-01	4.902000000000E-01
	O19	O	1.458000000000E-01	-2.380000000000E-02	4.902000000000E-01
	O20	O	-1.190000000000E-02	2.916000000000E-01	-4.902000000000E-01
	O21	O	-1.209500000000E-01	2.419000000000E-01	3.196000000000E-01
	O22	O	1.209500000000E-01	-2.419000000000E-01	-3.196000000000E-01
	O23	O	-6.840000000000E-02	1.368000000000E-01	-2.965000000000E-01
	O24	O	6.840000000000E-02	-1.368000000000E-01	2.965000000000E-01
	Si25	Si	-2.019500000000E-01	-1.071000000000E-01	-1.061000000000E-01
	Si26	Si	-5.355000000000E-02	-4.039000000000E-01	1.061000000000E-01
	Si27	Si	2.019500000000E-01	1.071000000000E-01	1.061000000000E-01
	Si28	Si	5.355000000000E-02	4.039000000000E-01	-1.061000000000E-01
	Si29	Si	-1.477000000000E-01	9.120000000000E-02	3.317000000000E-01
	Si30	Si	4.560000000000E-02	-2.954000000000E-01	-3.317000000000E-01
	Si31	Si	1.477000000000E-01	-9.120000000000E-02	-3.317000000000E-01
	Si32	Si	-4.560000000000E-02	2.954000000000E-01	3.317000000000E-01
	Si33	Si	-9.910000000000E-02	-6.000000000000E-03	-3.137000000000E-01
	Si34	Si	-3.000000000000E-03	-1.982000000000E-01	3.137000000000E-01
	Si35	Si	9.910000000000E-02	6.000000000000E-03	3.137000000000E-01
	Si36	Si	3.000000000000E-03	1.982000000000E-01	-3.137000000000E-01
	O37	O	2.632500000000E-01	1.453000000000E-01	2.285000000000E-01
	O38	O	-3.542000000000E-01	-2.380000000000E-02	4.902000000000E-01
	O39	O	-4.950000000000E-01	3.166000000000E-01	-1.989000000000E-01
	O40	O	4.881000000000E-01	2.916000000000E-01	-4.902000000000E-01
	O41	O	-2.632500000000E-01	-1.453000000000E-01	-2.285000000000E-01
	O42	O	3.790500000000E-01	2.419000000000E-01	3.196000000000E-01
	O43	O	-2.500000000000E-01	7.206033746270E-17	0.000000000000E+00
	O44	O	-3.790500000000E-01	-2.419000000000E-01	-3.196000000000E-01
	O45	O	-4.273500000000E-01	-4.735000000000E-01	-2.285000000000E-01
	O46	O	4.316000000000E-01	1.368000000000E-01	-2.965000000000E-01
	O47	O	5.000000000000E-01	-5.000000000000E-01	0.000000000000E+00
	O48	O	-4.316000000000E-01	-1.368000000000E-01	2.965000000000E-01
	O49	O	-3.633000000000E-01	2.734000000000E-01	0.000000000000E+00
	Si50	Si	2.980500000000E-01	-1.071000000000E-01	-1.061000000000E-01
	O51	O	4.131000000000E-01	-4.720000000000E-02	2.686000000000E-01
	Si52	Si	4.464500000000E-01	-4.039000000000E-01	1.061000000000E-01
	O53	O	3.417000000000E-01	-1.000000000000E-02	-1.989000000000E-01
	Si54	Si	-2.980500000000E-01	1.071000000000E-01	1.061000000000E-01
	O55	O	4.764000000000E-01	-1.738000000000E-01	-2.686000000000E-01
	Si56	Si	-4.464500000000E-01	4.039000000000E-01	-1.061000000000E-01
	O57	O	4.273500000000E-01	4.735000000000E-01	2.285000000000E-01
	Si58	Si	3.523000000000E-01	9.120000000000E-02	3.317000000000E-01
	O59	O	-4.131000000000E-01	4.720000000000E-02	-2.686000000000E-01
	Si60	Si	-4.544000000000E-01	-2.954000000000E-01	-3.317000000000E-01
	O61	O	4.950000000000E-01	-3.166000000000E-01	1.989000000000E-01
	Si62	Si	-3.523000000000E-01	-9.120000000000E-02	-3.317000000000E-01
	O63	O	-4.764000000000E-01	1.738000000000E-01	2.686000000000E-01
	Si64	Si	4.544000000000E-01	2.954000000000E-01	3.317000000000E-01
	O65	O	3.633000000000E-01	-2.734000000000E-01	0.000000000000E+00
	Si66	Si	4.009000000000E-01	-6.000000000000E-03	-3.137000000000E-01
	O67	O	3.542000000000E-01	2.380000000000E-02	-4.902000000000E-01
	Si68	Si	4.970000000000E-01	-1.982000000000E-01	3.137000000000E-01
	O69	O	-3.417000000000E-01	1.000000000000E-02	1.989000000000E-01
	Si70	Si	-4.009000000000E-01	6.000000000000E-03	3.137000000000E-01
	O71	O	-4.881000000000E-01	-2.916000000000E-01	4.902000000000E-01
	Si72	Si	-4.970000000000E-01	1.982000000000E-01	-3.137000000000E-01


data_ IWR
_chemical_name_common		'IWR'
_cell_length_a		12.52780401
_cell_length_b		12.52780401
_cell_length_c		12.67600000
_cell_angle_alpha		90.000000
_cell_angle_beta		90.000000
_cell_angle_gamma		115.867552
_space group_name_H-M_alt		'P 1'
_space_group_IT_number		1

loop_
	_atom_site_label
	_atom_site_type_symbol
	_atom_site_fract_x
	_atom_site_fract_y
	_atom_site_fract_z
	O1	O	2.713000000000E-01	7.330000000000E-02	1.037000000000E-01
	O2	O	-2.713000000000E-01	-7.330000000000E-02	1.037000000000E-01
	O3	O	-7.330000000000E-02	-2.713000000000E-01	-1.037000000000E-01
	O4	O	7.330000000000E-02	2.713000000000E-01	-1.037000000000E-01
	O5	O	-2.713000000000E-01	-7.330000000000E-02	-1.037000000000E-01
	O6	O	2.713000000000E-01	7.330000000000E-02	-1.037000000000E-01
	O7	O	7.330000000000E-02	2.713000000000E-01	1.037000000000E-01
	O8	O	-7.330000000000E-02	-2.713000000000E-01	1.037000000000E-01
	O9	O	1.100000000000E-01	1.100000000000E-01	0.000000000000E+00
	O10	O	-1.100000000000E-01	-1.100000000000E-01	0.000000000000E+00
	O11	O	1.022000000000E-01	-1.022000000000E-01	0.000000000000E+00
	O12	O	-1.022000000000E-01	1.022000000000E-01	0.000000000000E+00
	O13	O	2.181000000000E-01	3.550000000000E-02	-5.000000000000E-01
	O14	O	-2.181000000000E-01	-3.550000000000E-02	-5.000000000000E-01
	O15	O	-3.550000000000E-02	-2.181000000000E-01	-5.000000000000E-01
	O16	O	3.550000000000E-02	2.181000000000E-01	-5.000000000000E-01
	O17	O	7.950000000000E-02	-7.950000000000E-02	3.423000000000E-01
	O18	O	-7.950000000000E-02	7.950000000000E-02	3.423000000000E-01
	O19	O	7.950000000000E-02	-7.950000000000E-02	-3.423000000000E-01
	O20	O	-7.950000000000E-02	7.950000000000E-02	-3.423000000000E-01
	O21	O	3.028000000000E-01	6.660000000000E-02	3.075000000000E-01
	O22	O	-3.028000000000E-01	-6.660000000000E-02	3.075000000000E-01
	O23	O	-6.660000000000E-02	-3.028000000000E-01	-3.075000000000E-01
	O24	O	6.660000000000E-02	3.028000000000E-01	-3.075000000000E-01
	O25	O	-3.028000000000E-01	-6.660000000000E-02	-3.075000000000E-01
	O26	O	3.028000000000E-01	6.660000000000E-02	-3.075000000000E-01
	O27	O	6.660000000000E-02	3.028000000000E-01	3.075000000000E-01
	O28	O	-6.660000000000E-02	-3.028000000000E-01	3.075000000000E-01
	O29	O	1.503000000000E-01	1.503000000000E-01	3.618000000000E-01
	O30	O	-1.503000000000E-01	-1.503000000000E-01	3.618000000000E-01
	O31	O	-1.503000000000E-01	-1.503000000000E-01	-3.618000000000E-01
	O32	O	1.503000000000E-01	1.503000000000E-01	-3.618000000000E-01
	O33	O	3.363000000000E-01	-8.370000000000E-02	1.812000000000E-01
	O34	O	-3.363000000000E-01	8.370000000000E-02	1.812000000000E-01
	O35	O	8.370000000000E-02	-3.363000000000E-01	-1.812000000000E-01
	O36	O	-8.370000000000E-02	3.363000000000E-01	-1.812000000000E-01
	O37	O	-3.363000000000E-01	8.370000000000E-02	-1.812000000000E-01
	O38	O	3.363000000000E-01	-8.370000000000E-02	-1.812000000000E-01
	O39	O	-8.370000000000E-02	3.363000000000E-01	1.812000000000E-01
	O40	O	8.370000000000E-02	-3.363000000000E-01	1.812000000000E-01
	O41	O	4.865000000000E-01	1.421000000000E-01	1.788000000000E-01
	O42	O	-4.865000000000E-01	-1.421000000000E-01	1.788000000000E-01
	O43	O	-1.421000000000E-01	-4.865000000000E-01	-1.788000000000E-01
	O44	O	1.421000000000E-01	4.865000000000E-01	-1.788000000000E-01
	O45	O	-4.865000000000E-01	-1.421000000000E-01	-1.788000000000E-01
	O46	O	4.865000000000E-01	1.421000000000E-01	-1.788000000000E-01
	O47	O	1.421000000000E-01	4.865000000000E-01	1.788000000000E-01
	O48	O	-1.421000000000E-01	-4.865000000000E-01	1.788000000000E-01
	O49	O	2.994000000000E-01	-2.994000000000E-01	1.262000000000E-01
	O50	O	-2.994000000000E-01	2.994000000000E-01	1.262000000000E-01
	O51	O	2.994000000000E-01	-2.994000000000E-01	-1.262000000000E-01
	O52	O	-2.994000000000E-01	2.994000000000E-01	-1.262000000000E-01
	O53	O	4.180000000000E-01	-1.198000000000E-01	0.000000000000E+00
	O54	O	-4.180000000000E-01	1.198000000000E-01	0.000000000000E+00
	O55	O	1.198000000000E-01	-4.180000000000E-01	0.000000000000E+00
	O56	O	-1.198000000000E-01	4.180000000000E-01	0.000000000000E+00
	Si57	Si	1.876000000000E-01	4.360000000000E-02	3.777000000000E-01
	Si58	Si	-1.876000000000E-01	-4.360000000000E-02	3.777000000000E-01
	Si59	Si	-4.360000000000E-02	-1.876000000000E-01	-3.777000000000E-01
	Si60	Si	4.360000000000E-02	1.876000000000E-01	-3.777000000000E-01
	Si61	Si	-1.876000000000E-01	-4.360000000000E-02	-3.777000000000E-01
	Si62	Si	1.876000000000E-01	4.360000000000E-02	-3.777000000000E-01
	Si63	Si	4.360000000000E-02	1.876000000000E-01	3.777000000000E-01
	Si64	Si	-4.360000000000E-02	-1.876000000000E-01	3.777000000000E-01
	Si65	Si	3.494000000000E-01	4.940000000000E-02	1.933000000000E-01
	Si66	Si	-3.494000000000E-01	-4.940000000000E-02	1.933000000000E-01
	Si67	Si	-4.940000000000E-02	-3.494000000000E-01	-1.933000000000E-01
	Si68	Si	4.940000000000E-02	3.494000000000E-01	-1.933000000000E-01
	Si69	Si	-3.494000000000E-01	-4.940000000000E-02	-1.933000000000E-01
	Si70	Si	3.494000000000E-01	4.940000000000E-02	-1.933000000000E-01
	Si71	Si	4.940000000000E-02	3.494000000000E-01	1.933000000000E-01
	Si72	Si	-4.940000000000E-02	-3.494000000000E-01	1.933000000000E-01
	Si73	Si	3.918000000000E-01	-1.612000000000E-01	1.213000000000E-01
	Si74	Si	-3.918000000000E-01	1.612000000000E-01	1.213000000000E-01
	Si75	Si	1.612000000000E-01	-3.918000000000E-01	-1.213000000000E-01
	Si76	Si	-1.612000000000E-01	3.918000000000E-01	-1.213000000000E-01
	Si77	Si	-3.918000000000E-01	1.612000000000E-01	-1.213000000000E-01
	Si78	Si	3.918000000000E-01	-1.612000000000E-01	-1.213000000000E-01
	Si79	Si	-1.612000000000E-01	3.918000000000E-01	1.213000000000E-01
	Si80	Si	1.612000000000E-01	-3.918000000000E-01	1.213000000000E-01
	Si81	Si	1.891000000000E-01	3.790000000000E-02	0.000000000000E+00
	Si82	Si	-1.891000000000E-01	-3.790000000000E-02	0.000000000000E+00
	Si83	Si	-3.790000000000E-02	-1.891000000000E-01	0.000000000000E+00
	Si84	Si	3.790000000000E-02	1.891000000000E-01	0.000000000000E+00


data_ JNT
_chemical_name_common		'JNT'
_cell_length_a		8.20650000
_cell_length_b		14.13640000
_cell_length_c		15.40456000
_cell_angle_alpha		90.000000
_cell_angle_beta		119.270000
_cell_angle_gamma		90.000000
_space group_name_H-M_alt		'P 1'
_space_group_IT_number		1

loop_
	_atom_site_label
	_atom_site_type_symbol
	_atom_site_fract_x
	_atom_site_fract_y
	_atom_site_fract_z
	Si1	Si	-1.562300000000E-01	-3.244200000000E-01	2.403700000000E-01
	Si2	Si	1.562300000000E-01	1.755800000000E-01	2.596300000000E-01
	Si3	Si	1.562300000000E-01	3.244200000000E-01	-2.403700000000E-01
	Si4	Si	-1.562300000000E-01	-1.755800000000E-01	-2.596300000000E-01
	Si5	Si	2.126600000000E-01	-3.051100000000E-01	-3.889700000000E-01
	Si6	Si	-2.126600000000E-01	1.948900000000E-01	-1.110300000000E-01
	Si7	Si	-2.126600000000E-01	3.051100000000E-01	3.889700000000E-01
	Si8	Si	2.126600000000E-01	-1.948900000000E-01	1.110300000000E-01
	Si9	Si	-3.018200000000E-01	-5.245000000000E-02	3.106500000000E-01
	Si10	Si	3.018200000000E-01	4.475500000000E-01	1.893500000000E-01
	Si11	Si	3.018200000000E-01	5.245000000000E-02	-3.106500000000E-01
	Si12	Si	-3.018200000000E-01	-4.475500000000E-01	-1.893500000000E-01
	Si13	Si	-4.194500000000E-01	-3.717400000000E-01	4.207200000000E-01
	Si14	Si	4.194500000000E-01	1.282600000000E-01	7.928000000000E-02
	Si15	Si	4.194500000000E-01	3.717400000000E-01	-4.207200000000E-01
	Si16	Si	-4.194500000000E-01	-1.282600000000E-01	-7.928000000000E-02
	Si17	Si	-1.456300000000E-01	-2.263500000000E-01	4.192300000000E-01
	Si18	Si	1.456300000000E-01	2.736500000000E-01	8.077000000000E-02
	Si19	Si	1.456300000000E-01	2.263500000000E-01	-4.192300000000E-01
	Si20	Si	-1.456300000000E-01	-2.736500000000E-01	-8.077000000000E-02
	Si21	Si	-4.142700000000E-01	-1.715400000000E-01	1.177100000000E-01
	Si22	Si	4.142700000000E-01	3.284600000000E-01	3.822900000000E-01
	Si23	Si	4.142700000000E-01	1.715400000000E-01	-1.177100000000E-01
	Si24	Si	-4.142700000000E-01	-3.284600000000E-01	-3.822900000000E-01
	Si25	Si	2.189600000000E-01	-3.553400000000E-01	2.367000000000E-01
	Si26	Si	-2.189600000000E-01	1.446600000000E-01	2.633000000000E-01
	Si27	Si	-2.189600000000E-01	3.553400000000E-01	-2.367000000000E-01
	Si28	Si	2.189600000000E-01	-1.446600000000E-01	-2.633000000000E-01
	Si29	Si	-2.948600000000E-01	4.958100000000E-01	3.058900000000E-01
	Si30	Si	2.948600000000E-01	-4.190000000000E-03	1.941100000000E-01
	Si31	Si	2.948600000000E-01	-4.958100000000E-01	-3.058900000000E-01
	Si32	Si	-2.948600000000E-01	4.190000000000E-03	-1.941100000000E-01
	O33	O	1.670700000000E-01	-4.028000000000E-01	-3.511800000000E-01
	O34	O	-1.670700000000E-01	9.720000000000E-02	-1.488200000000E-01
	O35	O	-1.670700000000E-01	4.028000000000E-01	3.511800000000E-01
	O36	O	1.670700000000E-01	-9.720000000000E-02	1.488200000000E-01
	O37	O	3.630800000000E-01	-3.263200000000E-01	-4.250900000000E-01
	O38	O	-3.630800000000E-01	1.736800000000E-01	-7.491000000000E-02
	O39	O	-3.630800000000E-01	3.263200000000E-01	4.250900000000E-01
	O40	O	3.630800000000E-01	-1.736800000000E-01	7.491000000000E-02
	O41	O	2.380000000000E-02	-2.580000000000E-01	-4.746500000000E-01
	O42	O	-2.380000000000E-02	2.420000000000E-01	-2.535000000000E-02
	O43	O	-2.380000000000E-02	2.580000000000E-01	4.746500000000E-01
	O44	O	2.380000000000E-02	-2.420000000000E-01	2.535000000000E-02
	O45	O	3.562100000000E-01	-3.727800000000E-01	3.537000000000E-01
	O46	O	-3.562100000000E-01	1.272200000000E-01	1.463000000000E-01
	O47	O	-3.562100000000E-01	3.727800000000E-01	-3.537000000000E-01
	O48	O	3.562100000000E-01	-1.272200000000E-01	-1.463000000000E-01
	O49	O	3.022900000000E-01	-2.306600000000E-01	-2.982200000000E-01
	O50	O	-3.022900000000E-01	2.693400000000E-01	-2.017800000000E-01
	O51	O	-3.022900000000E-01	2.306600000000E-01	2.982200000000E-01
	O52	O	3.022900000000E-01	-2.693400000000E-01	2.017800000000E-01
	O53	O	-3.357000000000E-01	-2.780000000000E-01	1.470900000000E-01
	O54	O	3.357000000000E-01	2.220000000000E-01	3.529100000000E-01
	O55	O	3.357000000000E-01	2.780000000000E-01	-1.470900000000E-01
	O56	O	-3.357000000000E-01	-2.220000000000E-01	-3.529100000000E-01
	O57	O	-1.968600000000E-01	-4.280000000000E-01	2.686200000000E-01
	O58	O	1.968600000000E-01	7.200000000000E-02	2.313800000000E-01
	O59	O	1.968600000000E-01	4.280000000000E-01	-2.686200000000E-01
	O60	O	-1.968600000000E-01	-7.200000000000E-02	-2.313800000000E-01
	O61	O	-1.824100000000E-01	-1.138900000000E-01	4.101800000000E-01
	O62	O	1.824100000000E-01	3.861100000000E-01	8.982000000000E-02
	O63	O	1.824100000000E-01	1.138900000000E-01	-4.101800000000E-01
	O64	O	-1.824100000000E-01	-3.861100000000E-01	-8.982000000000E-02
	O65	O	-3.352500000000E-01	-4.605000000000E-01	3.901200000000E-01
	O66	O	3.352500000000E-01	3.950000000000E-02	1.098800000000E-01
	O67	O	3.352500000000E-01	4.605000000000E-01	-3.901200000000E-01
	O68	O	-3.352500000000E-01	-3.950000000000E-02	-1.098800000000E-01
	O69	O	-3.661400000000E-01	-3.716900000000E-01	-4.638900000000E-01
	O70	O	3.661400000000E-01	1.283100000000E-01	-3.611000000000E-02
	O71	O	3.661400000000E-01	3.716900000000E-01	4.638900000000E-01
	O72	O	-3.661400000000E-01	-1.283100000000E-01	3.611000000000E-02
	O73	O	-3.370800000000E-01	-2.771400000000E-01	3.982600000000E-01
	O74	O	3.370800000000E-01	2.228600000000E-01	1.017400000000E-01
	O75	O	3.370800000000E-01	2.771400000000E-01	-3.982600000000E-01
	O76	O	-3.370800000000E-01	-2.228600000000E-01	-1.017400000000E-01
	O77	O	-3.128100000000E-01	-1.067900000000E-01	2.161000000000E-01
	O78	O	3.128100000000E-01	3.932100000000E-01	2.839000000000E-01
	O79	O	3.128100000000E-01	1.067900000000E-01	-2.161000000000E-01
	O80	O	-3.128100000000E-01	-3.932100000000E-01	-2.839000000000E-01
	O81	O	1.176000000000E-02	-3.288300000000E-01	2.148700000000E-01
	O82	O	-1.176000000000E-02	1.711700000000E-01	2.851300000000E-01
	O83	O	-1.176000000000E-02	3.288300000000E-01	-2.148700000000E-01
	O84	O	1.176000000000E-02	-1.711700000000E-01	-2.851300000000E-01
	O85	O	-2.060800000000E-01	4.981000000000E-02	3.241400000000E-01
	O86	O	2.060800000000E-01	-4.501900000000E-01	1.758600000000E-01
	O87	O	2.060800000000E-01	-4.981000000000E-02	-3.241400000000E-01
	O88	O	-2.060800000000E-01	4.501900000000E-01	-1.758600000000E-01
	O89	O	4.875100000000E-01	-3.671000000000E-02	2.895200000000E-01
	O90	O	-4.875100000000E-01	4.632900000000E-01	2.104800000000E-01
	O91	O	-4.875100000000E-01	3.671000000000E-02	-2.895200000000E-01
	O92	O	4.875100000000E-01	-4.632900000000E-01	-2.104800000000E-01
	O93	O	-9.274000000000E-02	-2.560700000000E-01	3.351400000000E-01
	O94	O	9.274000000000E-02	2.439300000000E-01	1.648600000000E-01
	O95	O	9.274000000000E-02	2.560700000000E-01	-3.351400000000E-01
	O96	O	-9.274000000000E-02	-2.439300000000E-01	-1.648600000000E-01


data_ JOZ
_chemical_name_common		'JOZ'
_cell_length_a		7.13860000
_cell_length_b		25.41820000
_cell_length_c		13.47050000
_cell_angle_alpha		90.000000
_cell_angle_beta		90.000000
_cell_angle_gamma		90.000000
_space group_name_H-M_alt		'P 1'
_space_group_IT_number		1

loop_
	_atom_site_label
	_atom_site_type_symbol
	_atom_site_fract_x
	_atom_site_fract_y
	_atom_site_fract_z
	O1	O	-1.640000000000E-01	-2.430000000000E-01	-4.202000000000E-01
	O2	O	1.640000000000E-01	2.430000000000E-01	7.980000000000E-02
	O3	O	-1.640000000000E-01	-7.000000000000E-03	4.202000000000E-01
	O4	O	1.640000000000E-01	7.000000000000E-03	-7.980000000000E-02
	O5	O	1.640000000000E-01	2.430000000000E-01	4.202000000000E-01
	O6	O	-1.640000000000E-01	-2.430000000000E-01	-7.980000000000E-02
	O7	O	1.640000000000E-01	7.000000000000E-03	-4.202000000000E-01
	O8	O	-1.640000000000E-01	-7.000000000000E-03	7.980000000000E-02
	O9	O	1.978000000000E-01	-2.334500000000E-01	-3.911000000000E-01
	O10	O	-1.978000000000E-01	2.334500000000E-01	1.089000000000E-01
	O11	O	1.978000000000E-01	-1.655000000000E-02	3.911000000000E-01
	O12	O	-1.978000000000E-01	1.655000000000E-02	-1.089000000000E-01
	O13	O	-1.978000000000E-01	2.334500000000E-01	3.911000000000E-01
	O14	O	1.978000000000E-01	-2.334500000000E-01	-1.089000000000E-01
	O15	O	-1.978000000000E-01	1.655000000000E-02	-3.911000000000E-01
	O16	O	1.978000000000E-01	-1.655000000000E-02	1.089000000000E-01
	O17	O	-1.490000000000E-02	-1.496000000000E-01	-4.139000000000E-01
	O18	O	1.490000000000E-02	1.496000000000E-01	8.610000000000E-02
	O19	O	-1.490000000000E-02	-1.004000000000E-01	4.139000000000E-01
	O20	O	1.490000000000E-02	1.004000000000E-01	-8.610000000000E-02
	O21	O	1.490000000000E-02	1.496000000000E-01	4.139000000000E-01
	O22	O	-1.490000000000E-02	-1.496000000000E-01	-8.610000000000E-02
	O23	O	1.490000000000E-02	1.004000000000E-01	-4.139000000000E-01
	O24	O	-1.490000000000E-02	-1.004000000000E-01	8.610000000000E-02
	O25	O	-4.140000000000E-02	-2.057000000000E-01	-2.500000000000E-01
	O26	O	4.140000000000E-02	2.057000000000E-01	2.500000000000E-01
	O27	O	-4.140000000000E-02	-4.430000000000E-02	2.500000000000E-01
	O28	O	4.140000000000E-02	4.430000000000E-02	-2.500000000000E-01
	O29	O	2.746000000000E-01	7.885000000000E-02	4.470000000000E-02
	O30	O	-2.746000000000E-01	-7.885000000000E-02	-4.553000000000E-01
	O31	O	2.746000000000E-01	1.711500000000E-01	-4.470000000000E-02
	O32	O	-2.746000000000E-01	-1.711500000000E-01	4.553000000000E-01
	O33	O	-2.746000000000E-01	-7.885000000000E-02	-4.470000000000E-02
	O34	O	2.746000000000E-01	7.885000000000E-02	4.553000000000E-01
	O35	O	-2.746000000000E-01	-1.711500000000E-01	4.470000000000E-02
	O36	O	2.746000000000E-01	1.711500000000E-01	-4.553000000000E-01
	O37	O	-5.000000000000E-01	0.000000000000E+00	0.000000000000E+00
	O38	O	-5.000000000000E-01	0.000000000000E+00	-5.000000000000E-01
	O39	O	-5.000000000000E-01	2.500000000000E-01	0.000000000000E+00
	O40	O	-5.000000000000E-01	2.500000000000E-01	-5.000000000000E-01
	Si41	Si	-3.900000000000E-03	-2.080000000000E-01	-3.675000000000E-01
	Si42	Si	3.900000000000E-03	2.080000000000E-01	1.325000000000E-01
	Si43	Si	-3.900000000000E-03	-4.200000000000E-02	3.675000000000E-01
	Si44	Si	3.900000000000E-03	4.200000000000E-02	-1.325000000000E-01
	Si45	Si	3.900000000000E-03	2.080000000000E-01	3.675000000000E-01
	Si46	Si	-3.900000000000E-03	-2.080000000000E-01	-1.325000000000E-01
	Si47	Si	3.900000000000E-03	4.200000000000E-02	-3.675000000000E-01
	Si48	Si	-3.900000000000E-03	-4.200000000000E-02	1.325000000000E-01
	Si49	Si	2.864000000000E-01	1.700000000000E-02	1.900000000000E-02
	Si50	Si	-2.864000000000E-01	-1.700000000000E-02	-4.810000000000E-01
	Si51	Si	2.864000000000E-01	2.330000000000E-01	-1.900000000000E-02
	Si52	Si	-2.864000000000E-01	-2.330000000000E-01	4.810000000000E-01
	Si53	Si	-2.864000000000E-01	-1.700000000000E-02	-1.900000000000E-02
	Si54	Si	2.864000000000E-01	1.700000000000E-02	4.810000000000E-01
	Si55	Si	-2.864000000000E-01	-2.330000000000E-01	1.900000000000E-02
	Si56	Si	2.864000000000E-01	2.330000000000E-01	-4.810000000000E-01
	Si57	Si	1.448000000000E-01	1.250000000000E-01	0.000000000000E+00
	Si58	Si	-1.448000000000E-01	-1.250000000000E-01	-5.000000000000E-01
	Si59	Si	-1.448000000000E-01	-1.250000000000E-01	0.000000000000E+00
	Si60	Si	1.448000000000E-01	1.250000000000E-01	-5.000000000000E-01
	O61	O	-1.640000000000E-01	4.930000000000E-01	7.980000000000E-02
	O62	O	2.746000000000E-01	-3.288500000000E-01	-4.470000000000E-02
	O63	O	1.978000000000E-01	4.834500000000E-01	1.089000000000E-01
	O64	O	-2.746000000000E-01	3.288500000000E-01	4.553000000000E-01
	O65	O	-1.640000000000E-01	2.570000000000E-01	-4.202000000000E-01
	O66	O	-2.746000000000E-01	4.211500000000E-01	-4.470000000000E-02
	O67	O	-1.490000000000E-02	3.504000000000E-01	-4.139000000000E-01
	O68	O	2.746000000000E-01	-4.211500000000E-01	4.553000000000E-01
	O69	O	1.978000000000E-01	2.665500000000E-01	-3.911000000000E-01
	O70	O	-2.746000000000E-01	3.288500000000E-01	4.470000000000E-02
	O71	O	1.490000000000E-02	-3.504000000000E-01	8.610000000000E-02
	O72	O	2.746000000000E-01	-3.288500000000E-01	-4.553000000000E-01
	O73	O	1.640000000000E-01	-2.570000000000E-01	4.202000000000E-01
	O74	O	-5.000000000000E-01	-5.000000000000E-01	0.000000000000E+00
	O75	O	-1.490000000000E-02	3.996000000000E-01	4.139000000000E-01
	O76	O	-5.000000000000E-01	-5.000000000000E-01	-5.000000000000E-01
	O77	O	-1.978000000000E-01	-2.665500000000E-01	1.089000000000E-01
	O78	O	-5.000000000000E-01	-2.500000000000E-01	0.000000000000E+00
	O79	O	1.490000000000E-02	-3.996000000000E-01	-8.610000000000E-02
	O80	O	-5.000000000000E-01	-2.500000000000E-01	-5.000000000000E-01
	O81	O	-1.640000000000E-01	4.930000000000E-01	4.202000000000E-01
	Si82	Si	-3.900000000000E-03	2.920000000000E-01	-3.675000000000E-01
	O83	O	1.490000000000E-02	-3.504000000000E-01	4.139000000000E-01
	Si84	Si	3.900000000000E-03	-2.920000000000E-01	1.325000000000E-01
	O85	O	1.978000000000E-01	4.834500000000E-01	3.911000000000E-01
	Si86	Si	-3.900000000000E-03	4.580000000000E-01	3.675000000000E-01
	O87	O	-1.490000000000E-02	3.504000000000E-01	-8.610000000000E-02
	Si88	Si	3.900000000000E-03	-4.580000000000E-01	-1.325000000000E-01
	O89	O	-1.640000000000E-01	2.570000000000E-01	-7.980000000000E-02
	Si90	Si	3.900000000000E-03	-2.920000000000E-01	3.675000000000E-01
	O91	O	1.490000000000E-02	-3.996000000000E-01	-4.139000000000E-01
	Si92	Si	-3.900000000000E-03	2.920000000000E-01	-1.325000000000E-01
	O93	O	-1.978000000000E-01	-4.834500000000E-01	-1.089000000000E-01
	Si94	Si	3.900000000000E-03	-4.580000000000E-01	-3.675000000000E-01
	O95	O	-1.490000000000E-02	3.996000000000E-01	8.610000000000E-02
	Si96	Si	-3.900000000000E-03	4.580000000000E-01	1.325000000000E-01
	O97	O	1.640000000000E-01	-2.570000000000E-01	7.980000000000E-02
	Si98	Si	2.864000000000E-01	-4.830000000000E-01	1.900000000000E-02
	O99	O	-4.140000000000E-02	2.943000000000E-01	-2.500000000000E-01
	Si100	Si	-2.864000000000E-01	4.830000000000E-01	-4.810000000000E-01
	O101	O	-1.978000000000E-01	-2.665500000000E-01	3.911000000000E-01
	Si102	Si	2.864000000000E-01	-2.670000000000E-01	-1.900000000000E-02
	O103	O	4.140000000000E-02	-2.943000000000E-01	2.500000000000E-01
	Si104	Si	-2.864000000000E-01	2.670000000000E-01	4.810000000000E-01
	O105	O	1.640000000000E-01	-4.930000000000E-01	-4.202000000000E-01
	Si106	Si	-2.864000000000E-01	4.830000000000E-01	-1.900000000000E-02
	O107	O	-4.140000000000E-02	4.557000000000E-01	2.500000000000E-01
	Si108	Si	2.864000000000E-01	-4.830000000000E-01	4.810000000000E-01
	O109	O	1.978000000000E-01	2.665500000000E-01	-1.089000000000E-01
	Si110	Si	-2.864000000000E-01	2.670000000000E-01	1.900000000000E-02
	O111	O	4.140000000000E-02	-4.557000000000E-01	-2.500000000000E-01
	Si112	Si	2.864000000000E-01	-2.670000000000E-01	-4.810000000000E-01
	O113	O	1.640000000000E-01	-4.930000000000E-01	-7.980000000000E-02
	Si114	Si	1.448000000000E-01	-3.750000000000E-01	0.000000000000E+00
	O115	O	2.746000000000E-01	-4.211500000000E-01	4.470000000000E-02
	Si116	Si	-1.448000000000E-01	3.750000000000E-01	-5.000000000000E-01
	O117	O	-1.978000000000E-01	-4.834500000000E-01	-3.911000000000E-01
	Si118	Si	-1.448000000000E-01	3.750000000000E-01	0.000000000000E+00
	O119	O	-2.746000000000E-01	4.211500000000E-01	-4.553000000000E-01
	Si120	Si	1.448000000000E-01	-3.750000000000E-01	-5.000000000000E-01


data_ JRY
_chemical_name_common		'JRY'
_cell_length_a		10.61119292
_cell_length_b		10.61119292
_cell_length_c		21.22238585
_cell_angle_alpha		134.745389
_cell_angle_beta		128.619657
_cell_angle_gamma		70.846188
_space group_name_H-M_alt		'P 1'
_space_group_IT_number		1

loop_
	_atom_site_label
	_atom_site_type_symbol
	_atom_site_fract_x
	_atom_site_fract_y
	_atom_site_fract_z
	O1	O	1.914000000000E-01	-3.577583730379E-18	9.570000000000E-02
	O2	O	3.086000000000E-01	-5.000000000000E-01	4.043000000000E-01
	O3	O	2.270000000000E-02	-1.639000000000E-01	-1.099000000000E-01
	O4	O	-4.441000000000E-01	-2.575000000000E-01	1.099000000000E-01
	O5	O	4.773000000000E-01	2.575000000000E-01	-9.330000000000E-02
	O6	O	-5.590000000000E-02	1.639000000000E-01	9.330000000000E-02
	O7	O	2.342000000000E-01	1.398000000000E-01	4.510000000000E-02
	O8	O	-4.504000000000E-01	-3.560000000000E-01	4.549000000000E-01
	O9	O	2.658000000000E-01	3.560000000000E-01	4.528000000000E-01
	O10	O	-4.960000000000E-02	-1.398000000000E-01	4.720000000000E-02
	O11	O	3.416000000000E-01	-1.584000000000E-01	-2.355525356819E-17
	O12	O	1.584000000000E-01	1.584000000000E-01	2.500000000000E-01
	O13	O	1.149000000000E-01	4.028000000000E-01	1.538500000000E-01
	O14	O	-4.049000000000E-01	3.072000000000E-01	3.461500000000E-01
	O15	O	3.851000000000E-01	-3.072000000000E-01	1.439500000000E-01
	O16	O	-9.510000000000E-02	-4.028000000000E-01	3.560500000000E-01
	O17	O	-9.450000000000E-02	-5.000000000000E-01	2.027500000000E-01
	O18	O	-4.055000000000E-01	1.257945677875E-16	-2.027500000000E-01
	O19	O	-2.030000000000E-01	2.970000000000E-01	3.914993021220E-17
	O20	O	-2.970000000000E-01	-2.970000000000E-01	2.500000000000E-01
	O21	O	6.600000000000E-02	-4.340000000000E-01	-5.823778045200E-18
	O22	O	4.340000000000E-01	4.340000000000E-01	2.500000000000E-01
	O23	O	2.500000000000E-01	4.498000000000E-01	9.990000000000E-02
	O24	O	-2.500000000000E-01	-4.498000000000E-01	-9.990000000000E-02
	Si25	Si	1.986000000000E-01	-4.690000000000E-02	7.550000000000E-03
	Si26	Si	4.380000000000E-01	-3.165000000000E-01	4.924500000000E-01
	Si27	Si	3.014000000000E-01	3.165000000000E-01	3.772500000000E-01
	Si28	Si	6.200000000000E-02	4.690000000000E-02	1.227500000000E-01
	Si29	Si	-6.000000000000E-02	3.407000000000E-01	1.122500000000E-01
	Si30	Si	-3.838000000000E-01	2.155000000000E-01	-1.122500000000E-01
	Si31	Si	-4.400000000000E-01	-2.155000000000E-01	-2.996500000000E-01
	Si32	Si	-1.162000000000E-01	-3.407000000000E-01	2.996500000000E-01
	Si33	Si	2.433000000000E-01	-4.837000000000E-01	4.950000000000E-02
	Si34	Si	-8.270000000000E-02	-3.557000000000E-01	-4.950000000000E-02
	Si35	Si	2.567000000000E-01	3.557000000000E-01	1.365000000000E-01
	Si36	Si	-4.173000000000E-01	4.837000000000E-01	3.635000000000E-01
	O37	O	4.773000000000E-01	2.575000000000E-01	4.067000000000E-01
	O38	O	-2.030000000000E-01	2.970000000000E-01	-5.000000000000E-01
	O39	O	-4.960000000000E-02	-1.398000000000E-01	-4.528000000000E-01
	O40	O	-2.970000000000E-01	-2.970000000000E-01	-2.500000000000E-01
	O41	O	2.270000000000E-02	-1.639000000000E-01	3.901000000000E-01
	O42	O	6.600000000000E-02	-4.340000000000E-01	-5.000000000000E-01
	O43	O	3.416000000000E-01	-1.584000000000E-01	-5.000000000000E-01
	O44	O	4.340000000000E-01	4.340000000000E-01	-2.500000000000E-01
	O45	O	-5.590000000000E-02	1.639000000000E-01	-4.067000000000E-01
	O46	O	2.500000000000E-01	4.498000000000E-01	-4.001000000000E-01
	O47	O	1.584000000000E-01	1.584000000000E-01	-2.500000000000E-01
	O48	O	-2.500000000000E-01	-4.498000000000E-01	4.001000000000E-01
	O49	O	3.086000000000E-01	-5.000000000000E-01	-9.570000000000E-02
	Si50	Si	1.986000000000E-01	-4.690000000000E-02	-4.924500000000E-01
	O51	O	1.149000000000E-01	4.028000000000E-01	-3.461500000000E-01
	Si52	Si	4.380000000000E-01	-3.165000000000E-01	-7.550000000000E-03
	O53	O	2.342000000000E-01	1.398000000000E-01	-4.549000000000E-01
	Si54	Si	3.014000000000E-01	3.165000000000E-01	-1.227500000000E-01
	O55	O	-4.049000000000E-01	3.072000000000E-01	-1.538500000000E-01
	Si56	Si	6.200000000000E-02	4.690000000000E-02	-3.772500000000E-01
	O57	O	-4.441000000000E-01	-2.575000000000E-01	-3.901000000000E-01
	Si58	Si	-6.000000000000E-02	3.407000000000E-01	-3.877500000000E-01
	O59	O	3.851000000000E-01	-3.072000000000E-01	-3.560500000000E-01
	Si60	Si	-3.838000000000E-01	2.155000000000E-01	3.877500000000E-01
	O61	O	-4.504000000000E-01	-3.560000000000E-01	-4.510000000000E-02
	Si62	Si	-4.400000000000E-01	-2.155000000000E-01	2.003500000000E-01
	O63	O	-9.510000000000E-02	-4.028000000000E-01	-1.439500000000E-01
	Si64	Si	-1.162000000000E-01	-3.407000000000E-01	-2.003500000000E-01
	O65	O	1.914000000000E-01	4.255414807813E-18	-4.043000000000E-01
	Si66	Si	2.433000000000E-01	-4.837000000000E-01	-4.505000000000E-01
	O67	O	-9.450000000000E-02	-5.000000000000E-01	-2.972500000000E-01
	Si68	Si	-8.270000000000E-02	-3.557000000000E-01	4.505000000000E-01
	O69	O	2.658000000000E-01	3.560000000000E-01	-4.720000000000E-02
	Si70	Si	2.567000000000E-01	3.557000000000E-01	-3.635000000000E-01
	O71	O	-4.055000000000E-01	3.218718732291E-16	2.972500000000E-01
	Si72	Si	-4.173000000000E-01	4.837000000000E-01	-1.365000000000E-01


data_ JSN
_chemical_name_common		'JSN'
_cell_length_a		8.71720000
_cell_length_b		6.92310000
_cell_length_c		29.89200000
_cell_angle_alpha		90.000000
_cell_angle_beta		96.992000
_cell_angle_gamma		90.000000
_space group_name_H-M_alt		'P 1'
_space_group_IT_number		1

loop_
	_atom_site_label
	_atom_site_type_symbol
	_atom_site_fract_x
	_atom_site_fract_y
	_atom_site_fract_z
	O1	O	-2.760000000000E-01	2.994000000000E-01	9.900000000000E-02
	O2	O	2.760000000000E-01	2.994000000000E-01	1.510000000000E-01
	O3	O	2.760000000000E-01	-2.994000000000E-01	-9.900000000000E-02
	O4	O	-2.760000000000E-01	-2.994000000000E-01	-1.510000000000E-01
	O5	O	-2.245000000000E-01	1.056000000000E-01	1.747000000000E-01
	O6	O	2.245000000000E-01	1.056000000000E-01	7.530000000000E-02
	O7	O	2.245000000000E-01	-1.056000000000E-01	-1.747000000000E-01
	O8	O	-2.245000000000E-01	-1.056000000000E-01	-7.530000000000E-02
	O9	O	-2.283000000000E-01	-7.430000000000E-02	9.645000000000E-02
	O10	O	2.283000000000E-01	-7.430000000000E-02	1.535500000000E-01
	O11	O	2.283000000000E-01	7.430000000000E-02	-9.645000000000E-02
	O12	O	-2.283000000000E-01	7.430000000000E-02	-1.535500000000E-01
	O13	O	7.959707255956E-18	1.621000000000E-01	1.250000000000E-01
	O14	O	-7.959707255956E-18	-1.621000000000E-01	-1.250000000000E-01
	O15	O	-2.962000000000E-01	-8.220000000000E-02	7.900000000000E-03
	O16	O	2.962000000000E-01	-8.220000000000E-02	2.421000000000E-01
	O17	O	2.962000000000E-01	8.220000000000E-02	-7.900000000000E-03
	O18	O	-2.962000000000E-01	8.220000000000E-02	-2.421000000000E-01
	O19	O	-4.826000000000E-01	6.070000000000E-02	-5.985000000000E-02
	O20	O	4.826000000000E-01	6.070000000000E-02	-1.901500000000E-01
	O21	O	4.826000000000E-01	-6.070000000000E-02	5.985000000000E-02
	O22	O	-4.826000000000E-01	-6.070000000000E-02	1.901500000000E-01
	O23	O	-4.525000000000E-01	-3.148000000000E-01	-4.990000000000E-02
	O24	O	4.525000000000E-01	-3.148000000000E-01	-2.001000000000E-01
	O25	O	4.525000000000E-01	3.148000000000E-01	4.990000000000E-02
	O26	O	-4.525000000000E-01	3.148000000000E-01	2.001000000000E-01
	O27	O	-3.611000000000E-01	3.819000000000E-01	-1.941500000000E-01
	O28	O	3.611000000000E-01	3.819000000000E-01	-5.585000000000E-02
	O29	O	3.611000000000E-01	-3.819000000000E-01	1.941500000000E-01
	O30	O	-3.611000000000E-01	-3.819000000000E-01	5.585000000000E-02
	O31	O	-5.000000000000E-01	-4.886000000000E-01	1.250000000000E-01
	O32	O	5.000000000000E-01	4.886000000000E-01	-1.250000000000E-01
	Si33	Si	-1.820000000000E-01	1.216000000000E-01	1.239000000000E-01
	Si34	Si	1.820000000000E-01	1.216000000000E-01	1.261000000000E-01
	Si35	Si	1.820000000000E-01	-1.216000000000E-01	-1.239000000000E-01
	Si36	Si	-1.820000000000E-01	-1.216000000000E-01	-1.261000000000E-01
	Si37	Si	-3.632000000000E-01	-1.109000000000E-01	-4.435000000000E-02
	Si38	Si	3.632000000000E-01	-1.109000000000E-01	-2.056500000000E-01
	Si39	Si	3.632000000000E-01	1.109000000000E-01	4.435000000000E-02
	Si40	Si	-3.632000000000E-01	1.109000000000E-01	2.056500000000E-01
	Si41	Si	-3.494000000000E-01	1.498000000000E-01	-1.948000000000E-01
	Si42	Si	3.494000000000E-01	1.498000000000E-01	-5.520000000000E-02
	Si43	Si	3.494000000000E-01	-1.498000000000E-01	1.948000000000E-01
	Si44	Si	-3.494000000000E-01	-1.498000000000E-01	5.520000000000E-02
	Si45	Si	4.211000000000E-01	4.357000000000E-01	1.677500000000E-01
	Si46	Si	-4.211000000000E-01	4.357000000000E-01	8.225000000000E-02
	Si47	Si	-4.211000000000E-01	-4.357000000000E-01	-1.677500000000E-01
	Si48	Si	4.211000000000E-01	-4.357000000000E-01	-8.225000000000E-02
	O49	O	2.760000000000E-01	2.994000000000E-01	-3.490000000000E-01
	O50	O	4.525000000000E-01	3.148000000000E-01	-4.501000000000E-01
	O51	O	3.550072471247E-18	1.621000000000E-01	-3.750000000000E-01
	O52	O	-4.525000000000E-01	3.148000000000E-01	-2.999000000000E-01
	O53	O	2.245000000000E-01	-1.056000000000E-01	3.253000000000E-01
	O54	O	-3.611000000000E-01	3.819000000000E-01	3.058500000000E-01
	O55	O	-3.130564808688E-17	-1.621000000000E-01	3.750000000000E-01
	O56	O	3.611000000000E-01	3.819000000000E-01	4.441500000000E-01
	O57	O	-2.760000000000E-01	-2.994000000000E-01	3.490000000000E-01
	O58	O	3.611000000000E-01	-3.819000000000E-01	-3.058500000000E-01
	O59	O	-2.962000000000E-01	-8.220000000000E-02	-4.921000000000E-01
	O60	O	-3.611000000000E-01	-3.819000000000E-01	-4.441500000000E-01
	O61	O	-2.245000000000E-01	-1.056000000000E-01	4.247000000000E-01
	O62	O	5.000000000000E-01	-4.886000000000E-01	-3.750000000000E-01
	O63	O	2.962000000000E-01	-8.220000000000E-02	-2.579000000000E-01
	O64	O	5.000000000000E-01	4.886000000000E-01	3.750000000000E-01
	O65	O	-2.760000000000E-01	2.994000000000E-01	-4.010000000000E-01
	Si66	Si	-1.820000000000E-01	1.216000000000E-01	-3.761000000000E-01
	O67	O	2.962000000000E-01	8.220000000000E-02	4.921000000000E-01
	Si68	Si	1.820000000000E-01	1.216000000000E-01	-3.739000000000E-01
	O69	O	-2.283000000000E-01	-7.430000000000E-02	-4.035500000000E-01
	Si70	Si	1.820000000000E-01	-1.216000000000E-01	3.761000000000E-01
	O71	O	-2.962000000000E-01	8.220000000000E-02	2.579000000000E-01
	Si72	Si	-1.820000000000E-01	-1.216000000000E-01	3.739000000000E-01
	O73	O	-2.245000000000E-01	1.056000000000E-01	-3.253000000000E-01
	Si74	Si	-3.632000000000E-01	-1.109000000000E-01	4.556500000000E-01
	O75	O	-4.826000000000E-01	6.070000000000E-02	4.401500000000E-01
	Si76	Si	3.632000000000E-01	-1.109000000000E-01	2.943500000000E-01
	O77	O	2.283000000000E-01	-7.430000000000E-02	-3.464500000000E-01
	Si78	Si	3.632000000000E-01	1.109000000000E-01	-4.556500000000E-01
	O79	O	4.826000000000E-01	6.070000000000E-02	3.098500000000E-01
	Si80	Si	-3.632000000000E-01	1.109000000000E-01	-2.943500000000E-01
	O81	O	2.760000000000E-01	-2.994000000000E-01	4.010000000000E-01
	Si82	Si	-3.494000000000E-01	1.498000000000E-01	3.052000000000E-01
	O83	O	4.826000000000E-01	-6.070000000000E-02	-4.401500000000E-01
	Si84	Si	3.494000000000E-01	1.498000000000E-01	4.448000000000E-01
	O85	O	2.283000000000E-01	7.430000000000E-02	4.035500000000E-01
	Si86	Si	3.494000000000E-01	-1.498000000000E-01	-3.052000000000E-01
	O87	O	-4.826000000000E-01	-6.070000000000E-02	-3.098500000000E-01
	Si88	Si	-3.494000000000E-01	-1.498000000000E-01	-4.448000000000E-01
	O89	O	2.245000000000E-01	1.056000000000E-01	-4.247000000000E-01
	Si90	Si	4.211000000000E-01	4.357000000000E-01	-3.322500000000E-01
	O91	O	-4.525000000000E-01	-3.148000000000E-01	4.501000000000E-01
	Si92	Si	-4.211000000000E-01	4.357000000000E-01	-4.177500000000E-01
	O93	O	-2.283000000000E-01	7.430000000000E-02	3.464500000000E-01
	Si94	Si	-4.211000000000E-01	-4.357000000000E-01	3.322500000000E-01
	O95	O	4.525000000000E-01	-3.148000000000E-01	2.999000000000E-01
	Si96	Si	4.211000000000E-01	-4.357000000000E-01	4.177500000000E-01


data_ JST
_chemical_name_common		'JST'
_cell_length_a		14.97000000
_cell_length_b		14.97000000
_cell_length_c		14.97000000
_cell_angle_alpha		90.000000
_cell_angle_beta		90.000000
_cell_angle_gamma		90.000000
_space group_name_H-M_alt		'P 1'
_space_group_IT_number		1

loop_
	_atom_site_label
	_atom_site_type_symbol
	_atom_site_fract_x
	_atom_site_fract_y
	_atom_site_fract_z
	O1	O	-1.286000000000E-01	8.490000000000E-02	-3.310000000000E-02
	O2	O	-3.714000000000E-01	-8.490000000000E-02	4.669000000000E-01
	O3	O	3.714000000000E-01	4.151000000000E-01	3.310000000000E-02
	O4	O	1.286000000000E-01	-4.151000000000E-01	-4.669000000000E-01
	O5	O	-3.310000000000E-02	-1.286000000000E-01	8.490000000000E-02
	O6	O	8.490000000000E-02	-3.310000000000E-02	-1.286000000000E-01
	O7	O	-4.669000000000E-01	1.286000000000E-01	-4.151000000000E-01
	O8	O	-8.490000000000E-02	4.669000000000E-01	-3.714000000000E-01
	O9	O	4.669000000000E-01	-3.714000000000E-01	-8.490000000000E-02
	O10	O	4.151000000000E-01	3.310000000000E-02	3.714000000000E-01
	O11	O	3.310000000000E-02	3.714000000000E-01	4.151000000000E-01
	O12	O	-4.151000000000E-01	-4.669000000000E-01	1.286000000000E-01
	O13	O	1.286000000000E-01	-8.490000000000E-02	3.310000000000E-02
	O14	O	3.714000000000E-01	8.490000000000E-02	-4.669000000000E-01
	O15	O	-3.714000000000E-01	-4.151000000000E-01	-3.310000000000E-02
	O16	O	-1.286000000000E-01	4.151000000000E-01	4.669000000000E-01
	O17	O	3.310000000000E-02	1.286000000000E-01	-8.490000000000E-02
	O18	O	-8.490000000000E-02	3.310000000000E-02	1.286000000000E-01
	O19	O	4.669000000000E-01	-1.286000000000E-01	4.151000000000E-01
	O20	O	8.490000000000E-02	-4.669000000000E-01	3.714000000000E-01
	O21	O	-4.669000000000E-01	3.714000000000E-01	8.490000000000E-02
	O22	O	-4.151000000000E-01	-3.310000000000E-02	-3.714000000000E-01
	O23	O	-3.310000000000E-02	-3.714000000000E-01	-4.151000000000E-01
	O24	O	4.151000000000E-01	4.669000000000E-01	-1.286000000000E-01
	O25	O	-2.510000000000E-01	1.920000000000E-02	7.690000000000E-02
	O26	O	-2.490000000000E-01	-1.920000000000E-02	-4.231000000000E-01
	O27	O	2.490000000000E-01	4.808000000000E-01	-7.690000000000E-02
	O28	O	2.510000000000E-01	-4.808000000000E-01	4.231000000000E-01
	O29	O	7.690000000000E-02	-2.510000000000E-01	1.920000000000E-02
	O30	O	1.920000000000E-02	7.690000000000E-02	-2.510000000000E-01
	O31	O	4.231000000000E-01	2.510000000000E-01	-4.808000000000E-01
	O32	O	-1.920000000000E-02	-4.231000000000E-01	-2.490000000000E-01
	O33	O	-4.231000000000E-01	-2.490000000000E-01	-1.920000000000E-02
	O34	O	4.808000000000E-01	-7.690000000000E-02	2.490000000000E-01
	O35	O	-7.690000000000E-02	2.490000000000E-01	4.808000000000E-01
	O36	O	-4.808000000000E-01	4.231000000000E-01	2.510000000000E-01
	O37	O	2.510000000000E-01	-1.920000000000E-02	-7.690000000000E-02
	O38	O	2.490000000000E-01	1.920000000000E-02	4.231000000000E-01
	O39	O	-2.490000000000E-01	-4.808000000000E-01	7.690000000000E-02
	O40	O	-2.510000000000E-01	4.808000000000E-01	-4.231000000000E-01
	O41	O	-7.690000000000E-02	2.510000000000E-01	-1.920000000000E-02
	O42	O	-1.920000000000E-02	-7.690000000000E-02	2.510000000000E-01
	O43	O	-4.231000000000E-01	-2.510000000000E-01	4.808000000000E-01
	O44	O	1.920000000000E-02	4.231000000000E-01	2.490000000000E-01
	O45	O	4.231000000000E-01	2.490000000000E-01	1.920000000000E-02
	O46	O	-4.808000000000E-01	7.690000000000E-02	-2.490000000000E-01
	O47	O	7.690000000000E-02	-2.490000000000E-01	-4.808000000000E-01
	O48	O	4.808000000000E-01	-4.231000000000E-01	-2.510000000000E-01
	O49	O	-1.792000000000E-01	1.797000000000E-01	1.032000000000E-01
	O50	O	-3.208000000000E-01	-1.797000000000E-01	-3.968000000000E-01
	O51	O	3.208000000000E-01	3.203000000000E-01	-1.032000000000E-01
	O52	O	1.792000000000E-01	-3.203000000000E-01	3.968000000000E-01
	O53	O	1.032000000000E-01	-1.792000000000E-01	1.797000000000E-01
	O54	O	1.797000000000E-01	1.032000000000E-01	-1.792000000000E-01
	O55	O	3.968000000000E-01	1.792000000000E-01	-3.203000000000E-01
	O56	O	-1.797000000000E-01	-3.968000000000E-01	-3.208000000000E-01
	O57	O	-3.968000000000E-01	-3.208000000000E-01	-1.797000000000E-01
	O58	O	3.203000000000E-01	-1.032000000000E-01	3.208000000000E-01
	O59	O	-1.032000000000E-01	3.208000000000E-01	3.203000000000E-01
	O60	O	-3.203000000000E-01	3.968000000000E-01	1.792000000000E-01
	O61	O	1.792000000000E-01	-1.797000000000E-01	-1.032000000000E-01
	O62	O	3.208000000000E-01	1.797000000000E-01	3.968000000000E-01
	O63	O	-3.208000000000E-01	-3.203000000000E-01	1.032000000000E-01
	O64	O	-1.792000000000E-01	3.203000000000E-01	-3.968000000000E-01
	O65	O	-1.032000000000E-01	1.792000000000E-01	-1.797000000000E-01
	O66	O	-1.797000000000E-01	-1.032000000000E-01	1.792000000000E-01
	O67	O	-3.968000000000E-01	-1.792000000000E-01	3.203000000000E-01
	O68	O	1.797000000000E-01	3.968000000000E-01	3.208000000000E-01
	O69	O	3.968000000000E-01	3.208000000000E-01	1.797000000000E-01
	O70	O	-3.203000000000E-01	1.032000000000E-01	-3.208000000000E-01
	O71	O	1.032000000000E-01	-3.208000000000E-01	-3.203000000000E-01
	O72	O	3.203000000000E-01	-3.968000000000E-01	-1.792000000000E-01
	O73	O	-6.020000000000E-02	2.995000000000E-01	1.505000000000E-01
	O74	O	-4.398000000000E-01	-2.995000000000E-01	-3.495000000000E-01
	O75	O	4.398000000000E-01	2.005000000000E-01	-1.505000000000E-01
	O76	O	6.020000000000E-02	-2.005000000000E-01	3.495000000000E-01
	O77	O	1.505000000000E-01	-6.020000000000E-02	2.995000000000E-01
	O78	O	2.995000000000E-01	1.505000000000E-01	-6.020000000000E-02
	O79	O	3.495000000000E-01	6.020000000000E-02	-2.005000000000E-01
	O80	O	-2.995000000000E-01	-3.495000000000E-01	-4.398000000000E-01
	O81	O	-3.495000000000E-01	-4.398000000000E-01	-2.995000000000E-01
	O82	O	2.005000000000E-01	-1.505000000000E-01	4.398000000000E-01
	O83	O	-1.505000000000E-01	4.398000000000E-01	2.005000000000E-01
	O84	O	-2.005000000000E-01	3.495000000000E-01	6.020000000000E-02
	O85	O	6.020000000000E-02	-2.995000000000E-01	-1.505000000000E-01
	O86	O	4.398000000000E-01	2.995000000000E-01	3.495000000000E-01
	O87	O	-4.398000000000E-01	-2.005000000000E-01	1.505000000000E-01
	O88	O	-6.020000000000E-02	2.005000000000E-01	-3.495000000000E-01
	O89	O	-1.505000000000E-01	6.020000000000E-02	-2.995000000000E-01
	O90	O	-2.995000000000E-01	-1.505000000000E-01	6.020000000000E-02
	O91	O	-3.495000000000E-01	-6.020000000000E-02	2.005000000000E-01
	O92	O	2.995000000000E-01	3.495000000000E-01	4.398000000000E-01
	O93	O	3.495000000000E-01	4.398000000000E-01	2.995000000000E-01
	O94	O	-2.005000000000E-01	1.505000000000E-01	-4.398000000000E-01
	O95	O	1.505000000000E-01	-4.398000000000E-01	-2.005000000000E-01
	O96	O	2.005000000000E-01	-3.495000000000E-01	-6.020000000000E-02
	Si97	Si	-1.620000000000E-01	7.910000000000E-02	6.910000000000E-02
	Si98	Si	-3.380000000000E-01	-7.910000000000E-02	-4.309000000000E-01
	Si99	Si	3.380000000000E-01	4.209000000000E-01	-6.910000000000E-02
	Si100	Si	1.620000000000E-01	-4.209000000000E-01	4.309000000000E-01
	Si101	Si	6.910000000000E-02	-1.620000000000E-01	7.910000000000E-02
	Si102	Si	7.910000000000E-02	6.910000000000E-02	-1.620000000000E-01
	Si103	Si	4.309000000000E-01	1.620000000000E-01	-4.209000000000E-01
	Si104	Si	-7.910000000000E-02	-4.309000000000E-01	-3.380000000000E-01
	Si105	Si	-4.309000000000E-01	-3.380000000000E-01	-7.910000000000E-02
	Si106	Si	4.209000000000E-01	-6.910000000000E-02	3.380000000000E-01
	Si107	Si	-6.910000000000E-02	3.380000000000E-01	4.209000000000E-01
	Si108	Si	-4.209000000000E-01	4.309000000000E-01	1.620000000000E-01
	Si109	Si	1.620000000000E-01	-7.910000000000E-02	-6.910000000000E-02
	Si110	Si	3.380000000000E-01	7.910000000000E-02	4.309000000000E-01
	Si111	Si	-3.380000000000E-01	-4.209000000000E-01	6.910000000000E-02
	Si112	Si	-1.620000000000E-01	4.209000000000E-01	-4.309000000000E-01
	Si113	Si	-6.910000000000E-02	1.620000000000E-01	-7.910000000000E-02
	Si114	Si	-7.910000000000E-02	-6.910000000000E-02	1.620000000000E-01
	Si115	Si	-4.309000000000E-01	-1.620000000000E-01	4.209000000000E-01
	Si116	Si	7.910000000000E-02	4.309000000000E-01	3.380000000000E-01
	Si117	Si	4.309000000000E-01	3.380000000000E-01	7.910000000000E-02
	Si118	Si	-4.209000000000E-01	6.910000000000E-02	-3.380000000000E-01
	Si119	Si	6.910000000000E-02	-3.380000000000E-01	-4.209000000000E-01
	Si120	Si	4.209000000000E-01	-4.309000000000E-01	-1.620000000000E-01
	Si121	Si	-1.290000000000E-01	2.701000000000E-01	7.310000000000E-02
	Si122	Si	-3.710000000000E-01	-2.701000000000E-01	-4.269000000000E-01
	Si123	Si	3.710000000000E-01	2.299000000000E-01	-7.310000000000E-02
	Si124	Si	1.290000000000E-01	-2.299000000000E-01	4.269000000000E-01
	Si125	Si	7.310000000000E-02	-1.290000000000E-01	2.701000000000E-01
	Si126	Si	2.701000000000E-01	7.310000000000E-02	-1.290000000000E-01
	Si127	Si	4.269000000000E-01	1.290000000000E-01	-2.299000000000E-01
	Si128	Si	-2.701000000000E-01	-4.269000000000E-01	-3.710000000000E-01
	Si129	Si	-4.269000000000E-01	-3.710000000000E-01	-2.701000000000E-01
	Si130	Si	2.299000000000E-01	-7.310000000000E-02	3.710000000000E-01
	Si131	Si	-7.310000000000E-02	3.710000000000E-01	2.299000000000E-01
	Si132	Si	-2.299000000000E-01	4.269000000000E-01	1.290000000000E-01
	Si133	Si	1.290000000000E-01	-2.701000000000E-01	-7.310000000000E-02
	Si134	Si	3.710000000000E-01	2.701000000000E-01	4.269000000000E-01
	Si135	Si	-3.710000000000E-01	-2.299000000000E-01	7.310000000000E-02
	Si136	Si	-1.290000000000E-01	2.299000000000E-01	-4.269000000000E-01
	Si137	Si	-7.310000000000E-02	1.290000000000E-01	-2.701000000000E-01
	Si138	Si	-2.701000000000E-01	-7.310000000000E-02	1.290000000000E-01
	Si139	Si	-4.269000000000E-01	-1.290000000000E-01	2.299000000000E-01
	Si140	Si	2.701000000000E-01	4.269000000000E-01	3.710000000000E-01
	Si141	Si	4.269000000000E-01	3.710000000000E-01	2.701000000000E-01
	Si142	Si	-2.299000000000E-01	7.310000000000E-02	-3.710000000000E-01
	Si143	Si	7.310000000000E-02	-3.710000000000E-01	-2.299000000000E-01
	Si144	Si	2.299000000000E-01	-4.269000000000E-01	-1.290000000000E-01


data_ JSW
_chemical_name_common		'JSW'
_cell_length_a		16.01850000
_cell_length_b		9.66550000
_cell_length_c		16.83310000
_cell_angle_alpha		90.000000
_cell_angle_beta		90.000000
_cell_angle_gamma		90.000000
_space group_name_H-M_alt		'P 1'
_space_group_IT_number		1

loop_
	_atom_site_label
	_atom_site_type_symbol
	_atom_site_fract_x
	_atom_site_fract_y
	_atom_site_fract_z
	O1	O	1.826000000000E-01	4.890000000000E-02	-5.400000000000E-03
	O2	O	3.174000000000E-01	-4.890000000000E-02	4.946000000000E-01
	O3	O	-3.174000000000E-01	4.511000000000E-01	5.400000000000E-03
	O4	O	-1.826000000000E-01	-4.511000000000E-01	-4.946000000000E-01
	O5	O	-1.826000000000E-01	-4.890000000000E-02	5.400000000000E-03
	O6	O	-3.174000000000E-01	4.890000000000E-02	-4.946000000000E-01
	O7	O	3.174000000000E-01	-4.511000000000E-01	-5.400000000000E-03
	O8	O	1.826000000000E-01	4.511000000000E-01	4.946000000000E-01
	O9	O	2.901000000000E-01	1.604000000000E-01	9.520000000000E-02
	O10	O	2.099000000000E-01	-1.604000000000E-01	-4.048000000000E-01
	O11	O	-2.099000000000E-01	3.396000000000E-01	-9.520000000000E-02
	O12	O	-2.901000000000E-01	-3.396000000000E-01	4.048000000000E-01
	O13	O	-2.901000000000E-01	-1.604000000000E-01	-9.520000000000E-02
	O14	O	-2.099000000000E-01	1.604000000000E-01	4.048000000000E-01
	O15	O	2.099000000000E-01	-3.396000000000E-01	9.520000000000E-02
	O16	O	2.901000000000E-01	3.396000000000E-01	-4.048000000000E-01
	O17	O	2.168000000000E-01	-7.520000000000E-02	1.298000000000E-01
	O18	O	2.832000000000E-01	7.520000000000E-02	-3.702000000000E-01
	O19	O	-2.832000000000E-01	-4.248000000000E-01	-1.298000000000E-01
	O20	O	-2.168000000000E-01	4.248000000000E-01	3.702000000000E-01
	O21	O	-2.168000000000E-01	7.520000000000E-02	-1.298000000000E-01
	O22	O	-2.832000000000E-01	-7.520000000000E-02	3.702000000000E-01
	O23	O	2.832000000000E-01	4.248000000000E-01	1.298000000000E-01
	O24	O	2.168000000000E-01	-4.248000000000E-01	-3.702000000000E-01
	O25	O	1.308000000000E-01	1.554000000000E-01	1.298000000000E-01
	O26	O	3.692000000000E-01	-1.554000000000E-01	-3.702000000000E-01
	O27	O	-3.692000000000E-01	3.446000000000E-01	-1.298000000000E-01
	O28	O	-1.308000000000E-01	-3.446000000000E-01	3.702000000000E-01
	O29	O	-1.308000000000E-01	-1.554000000000E-01	-1.298000000000E-01
	O30	O	-3.692000000000E-01	1.554000000000E-01	3.702000000000E-01
	O31	O	3.692000000000E-01	-3.446000000000E-01	1.298000000000E-01
	O32	O	1.308000000000E-01	3.446000000000E-01	-3.702000000000E-01
	O33	O	7.620000000000E-02	-2.118000000000E-01	1.504000000000E-01
	O34	O	4.238000000000E-01	2.118000000000E-01	-3.496000000000E-01
	O35	O	-4.238000000000E-01	-2.882000000000E-01	-1.504000000000E-01
	O36	O	-7.620000000000E-02	2.882000000000E-01	3.496000000000E-01
	O37	O	-7.620000000000E-02	2.118000000000E-01	-1.504000000000E-01
	O38	O	-4.238000000000E-01	-2.118000000000E-01	3.496000000000E-01
	O39	O	4.238000000000E-01	2.882000000000E-01	1.504000000000E-01
	O40	O	7.620000000000E-02	-2.882000000000E-01	-3.496000000000E-01
	O41	O	2.039000000000E-01	-2.597000000000E-01	2.440000000000E-01
	O42	O	2.961000000000E-01	2.597000000000E-01	-2.560000000000E-01
	O43	O	-2.961000000000E-01	-2.403000000000E-01	-2.440000000000E-01
	O44	O	-2.039000000000E-01	2.403000000000E-01	2.560000000000E-01
	O45	O	-2.039000000000E-01	2.597000000000E-01	-2.440000000000E-01
	O46	O	-2.961000000000E-01	-2.597000000000E-01	2.560000000000E-01
	O47	O	2.961000000000E-01	2.403000000000E-01	2.440000000000E-01
	O48	O	2.039000000000E-01	-2.403000000000E-01	-2.560000000000E-01
	O49	O	-4.230000000000E-02	-2.164000000000E-01	2.595000000000E-01
	O50	O	-4.577000000000E-01	2.164000000000E-01	-2.405000000000E-01
	O51	O	4.577000000000E-01	-2.836000000000E-01	-2.595000000000E-01
	O52	O	4.230000000000E-02	2.836000000000E-01	2.405000000000E-01
	O53	O	4.230000000000E-02	2.164000000000E-01	-2.595000000000E-01
	O54	O	4.577000000000E-01	-2.164000000000E-01	2.405000000000E-01
	O55	O	-4.577000000000E-01	2.836000000000E-01	2.595000000000E-01
	O56	O	-4.230000000000E-02	-2.836000000000E-01	-2.405000000000E-01
	O57	O	-7.500000000000E-02	-1.257000000000E-01	1.152000000000E-01
	O58	O	-4.250000000000E-01	1.257000000000E-01	-3.848000000000E-01
	O59	O	4.250000000000E-01	-3.743000000000E-01	-1.152000000000E-01
	O60	O	7.500000000000E-02	3.743000000000E-01	3.848000000000E-01
	O61	O	7.500000000000E-02	1.257000000000E-01	-1.152000000000E-01
	O62	O	4.250000000000E-01	-1.257000000000E-01	3.848000000000E-01
	O63	O	-4.250000000000E-01	3.743000000000E-01	1.152000000000E-01
	O64	O	-7.500000000000E-02	-3.743000000000E-01	-3.848000000000E-01
	O65	O	1.900000000000E-02	1.960000000000E-02	2.126000000000E-01
	O66	O	4.810000000000E-01	-1.960000000000E-02	-2.874000000000E-01
	O67	O	-4.810000000000E-01	4.804000000000E-01	-2.126000000000E-01
	O68	O	-1.900000000000E-02	-4.804000000000E-01	2.874000000000E-01
	O69	O	-1.900000000000E-02	-1.960000000000E-02	-2.126000000000E-01
	O70	O	-4.810000000000E-01	1.960000000000E-02	2.874000000000E-01
	O71	O	4.810000000000E-01	-4.804000000000E-01	2.126000000000E-01
	O72	O	1.900000000000E-02	4.804000000000E-01	-2.874000000000E-01
	O73	O	1.584000000000E-01	1.054000000000E-01	2.804000000000E-01
	O74	O	3.416000000000E-01	-1.054000000000E-01	-2.196000000000E-01
	O75	O	-3.416000000000E-01	3.946000000000E-01	-2.804000000000E-01
	O76	O	-1.584000000000E-01	-3.946000000000E-01	2.196000000000E-01
	O77	O	-1.584000000000E-01	-1.054000000000E-01	-2.804000000000E-01
	O78	O	-3.416000000000E-01	1.054000000000E-01	2.196000000000E-01
	O79	O	3.416000000000E-01	-3.946000000000E-01	2.804000000000E-01
	O80	O	1.584000000000E-01	3.946000000000E-01	-2.196000000000E-01
	O81	O	3.000000000000E-01	3.690000000000E-02	3.477000000000E-01
	O82	O	2.000000000000E-01	-3.690000000000E-02	-1.523000000000E-01
	O83	O	-2.000000000000E-01	4.631000000000E-01	-3.477000000000E-01
	O84	O	-3.000000000000E-01	-4.631000000000E-01	1.523000000000E-01
	O85	O	-3.000000000000E-01	-3.690000000000E-02	-3.477000000000E-01
	O86	O	-2.000000000000E-01	3.690000000000E-02	1.523000000000E-01
	O87	O	2.000000000000E-01	-4.631000000000E-01	3.477000000000E-01
	O88	O	3.000000000000E-01	4.631000000000E-01	-1.523000000000E-01
	O89	O	2.726000000000E-01	-2.254000000000E-01	3.835000000000E-01
	O90	O	2.274000000000E-01	2.254000000000E-01	-1.165000000000E-01
	O91	O	-2.274000000000E-01	-2.746000000000E-01	-3.835000000000E-01
	O92	O	-2.726000000000E-01	2.746000000000E-01	1.165000000000E-01
	O93	O	-2.726000000000E-01	2.254000000000E-01	-3.835000000000E-01
	O94	O	-2.274000000000E-01	-2.254000000000E-01	1.165000000000E-01
	O95	O	2.274000000000E-01	2.746000000000E-01	3.835000000000E-01
	O96	O	2.726000000000E-01	-2.746000000000E-01	-1.165000000000E-01
	Si97	Si	2.053000000000E-01	7.220000000000E-02	8.670000000000E-02
	Si98	Si	2.947000000000E-01	-7.220000000000E-02	-4.133000000000E-01
	Si99	Si	-2.947000000000E-01	4.278000000000E-01	-8.670000000000E-02
	Si100	Si	-2.053000000000E-01	-4.278000000000E-01	4.133000000000E-01
	Si101	Si	-2.053000000000E-01	-7.220000000000E-02	-8.670000000000E-02
	Si102	Si	-2.947000000000E-01	7.220000000000E-02	4.133000000000E-01
	Si103	Si	2.947000000000E-01	-4.278000000000E-01	8.670000000000E-02
	Si104	Si	2.053000000000E-01	4.278000000000E-01	-4.133000000000E-01
	Si105	Si	-5.400000000000E-03	-1.341000000000E-01	1.841000000000E-01
	Si106	Si	-4.946000000000E-01	1.341000000000E-01	-3.159000000000E-01
	Si107	Si	4.946000000000E-01	-3.659000000000E-01	-1.841000000000E-01
	Si108	Si	5.400000000000E-03	3.659000000000E-01	3.159000000000E-01
	Si109	Si	5.400000000000E-03	1.341000000000E-01	-1.841000000000E-01
	Si110	Si	4.946000000000E-01	-1.341000000000E-01	3.159000000000E-01
	Si111	Si	-4.946000000000E-01	3.659000000000E-01	1.841000000000E-01
	Si112	Si	-5.400000000000E-03	-3.659000000000E-01	-3.159000000000E-01
	Si113	Si	2.456000000000E-01	1.639000000000E-01	3.141000000000E-01
	Si114	Si	2.544000000000E-01	-1.639000000000E-01	-1.859000000000E-01
	Si115	Si	-2.544000000000E-01	3.361000000000E-01	-3.141000000000E-01
	Si116	Si	-2.456000000000E-01	-3.361000000000E-01	1.859000000000E-01
	Si117	Si	-2.456000000000E-01	-1.639000000000E-01	-3.141000000000E-01
	Si118	Si	-2.544000000000E-01	1.639000000000E-01	1.859000000000E-01
	Si119	Si	2.544000000000E-01	-3.361000000000E-01	3.141000000000E-01
	Si120	Si	2.456000000000E-01	3.361000000000E-01	-1.859000000000E-01
	Si121	Si	3.284000000000E-01	-9.090000000000E-02	4.027000000000E-01
	Si122	Si	1.716000000000E-01	9.090000000000E-02	-9.730000000000E-02
	Si123	Si	-1.716000000000E-01	-4.091000000000E-01	-4.027000000000E-01
	Si124	Si	-3.284000000000E-01	4.091000000000E-01	9.730000000000E-02
	Si125	Si	-3.284000000000E-01	9.090000000000E-02	-4.027000000000E-01
	Si126	Si	-1.716000000000E-01	-9.090000000000E-02	9.730000000000E-02
	Si127	Si	1.716000000000E-01	4.091000000000E-01	4.027000000000E-01
	Si128	Si	3.284000000000E-01	-4.091000000000E-01	-9.730000000000E-02
	Si129	Si	1.764000000000E-01	-2.215000000000E-01	1.547000000000E-01
	Si130	Si	3.236000000000E-01	2.215000000000E-01	-3.453000000000E-01
	Si131	Si	-3.236000000000E-01	-2.785000000000E-01	-1.547000000000E-01
	Si132	Si	-1.764000000000E-01	2.785000000000E-01	3.453000000000E-01
	Si133	Si	-1.764000000000E-01	2.215000000000E-01	-1.547000000000E-01
	Si134	Si	-3.236000000000E-01	-2.215000000000E-01	3.453000000000E-01
	Si135	Si	3.236000000000E-01	2.785000000000E-01	1.547000000000E-01
	Si136	Si	1.764000000000E-01	-2.785000000000E-01	-3.453000000000E-01
	Si137	Si	8.750000000000E-02	1.413000000000E-01	2.158000000000E-01
	Si138	Si	4.125000000000E-01	-1.413000000000E-01	-2.842000000000E-01
	Si139	Si	-4.125000000000E-01	3.587000000000E-01	-2.158000000000E-01
	Si140	Si	-8.750000000000E-02	-3.587000000000E-01	2.842000000000E-01
	Si141	Si	-8.750000000000E-02	-1.413000000000E-01	-2.158000000000E-01
	Si142	Si	-4.125000000000E-01	1.413000000000E-01	2.842000000000E-01
	Si143	Si	4.125000000000E-01	-3.587000000000E-01	2.158000000000E-01
	Si144	Si	8.750000000000E-02	3.587000000000E-01	-2.842000000000E-01


data_ KFI
_chemical_name_common		'KFI'
_cell_length_a		16.08901995
_cell_length_b		16.08901995
_cell_length_c		16.08901995
_cell_angle_alpha		109.471221
_cell_angle_beta		109.471221
_cell_angle_gamma		109.471221
_space group_name_H-M_alt		'P 1'
_space_group_IT_number		1

loop_
	_atom_site_label
	_atom_site_type_symbol
	_atom_site_fract_x
	_atom_site_fract_y
	_atom_site_fract_z
	O1	O	-4.796000000000E-01	3.348000000000E-01	1.856000000000E-01
	O2	O	1.492000000000E-01	3.348000000000E-01	-1.856000000000E-01
	O3	O	4.796000000000E-01	-3.348000000000E-01	-1.856000000000E-01
	O4	O	-1.492000000000E-01	-3.348000000000E-01	1.856000000000E-01
	O5	O	1.856000000000E-01	-4.796000000000E-01	3.348000000000E-01
	O6	O	3.348000000000E-01	1.856000000000E-01	-4.796000000000E-01
	O7	O	1.856000000000E-01	-1.492000000000E-01	-3.348000000000E-01
	O8	O	3.348000000000E-01	-1.856000000000E-01	1.492000000000E-01
	O9	O	-1.856000000000E-01	1.492000000000E-01	3.348000000000E-01
	O10	O	-3.348000000000E-01	-1.856000000000E-01	4.796000000000E-01
	O11	O	-1.856000000000E-01	4.796000000000E-01	-3.348000000000E-01
	O12	O	-3.348000000000E-01	1.856000000000E-01	-1.492000000000E-01
	O13	O	-3.348000000000E-01	4.796000000000E-01	-1.856000000000E-01
	O14	O	-3.348000000000E-01	-1.492000000000E-01	1.856000000000E-01
	O15	O	3.348000000000E-01	-4.796000000000E-01	1.856000000000E-01
	O16	O	3.348000000000E-01	1.492000000000E-01	-1.856000000000E-01
	O17	O	4.796000000000E-01	-1.856000000000E-01	-3.348000000000E-01
	O18	O	-1.856000000000E-01	-3.348000000000E-01	4.796000000000E-01
	O19	O	1.492000000000E-01	-1.856000000000E-01	3.348000000000E-01
	O20	O	1.856000000000E-01	-3.348000000000E-01	-1.492000000000E-01
	O21	O	-1.492000000000E-01	1.856000000000E-01	-3.348000000000E-01
	O22	O	1.856000000000E-01	3.348000000000E-01	-4.796000000000E-01
	O23	O	-4.796000000000E-01	1.856000000000E-01	3.348000000000E-01
	O24	O	-1.856000000000E-01	3.348000000000E-01	1.492000000000E-01
	O25	O	4.896000000000E-01	3.366000000000E-01	3.366000000000E-01
	O26	O	-1.106294413420E-18	1.530000000000E-01	-3.366000000000E-01
	O27	O	-4.896000000000E-01	-1.530000000000E-01	-1.530000000000E-01
	O28	O	1.106294413420E-18	-3.366000000000E-01	1.530000000000E-01
	O29	O	3.366000000000E-01	4.896000000000E-01	3.366000000000E-01
	O30	O	3.366000000000E-01	3.366000000000E-01	4.896000000000E-01
	O31	O	1.530000000000E-01	-1.106294413420E-18	-3.366000000000E-01
	O32	O	1.530000000000E-01	-3.366000000000E-01	-1.106294413420E-18
	O33	O	-3.366000000000E-01	-3.806969358561E-18	1.530000000000E-01
	O34	O	-1.530000000000E-01	-1.530000000000E-01	-4.896000000000E-01
	O35	O	-1.530000000000E-01	-4.896000000000E-01	-1.530000000000E-01
	O36	O	-3.366000000000E-01	1.530000000000E-01	-3.806969358561E-18
	O37	O	-3.366000000000E-01	-4.896000000000E-01	-3.366000000000E-01
	O38	O	-1.530000000000E-01	1.106294413420E-18	3.366000000000E-01
	O39	O	1.530000000000E-01	4.896000000000E-01	1.530000000000E-01
	O40	O	3.366000000000E-01	3.806969358561E-18	-1.530000000000E-01
	O41	O	-4.896000000000E-01	-3.366000000000E-01	-3.366000000000E-01
	O42	O	-3.366000000000E-01	-3.366000000000E-01	-4.896000000000E-01
	O43	O	1.106294413420E-18	-1.530000000000E-01	3.366000000000E-01
	O44	O	3.366000000000E-01	-1.530000000000E-01	3.806969358561E-18
	O45	O	-1.106294413420E-18	3.366000000000E-01	-1.530000000000E-01
	O46	O	1.530000000000E-01	1.530000000000E-01	4.896000000000E-01
	O47	O	4.896000000000E-01	1.530000000000E-01	1.530000000000E-01
	O48	O	-1.530000000000E-01	3.366000000000E-01	1.106294413420E-18
	O49	O	-3.658000000000E-01	-5.000000000000E-01	3.658000000000E-01
	O50	O	1.342000000000E-01	2.684000000000E-01	-3.658000000000E-01
	O51	O	3.658000000000E-01	-2.684000000000E-01	-1.342000000000E-01
	O52	O	-1.342000000000E-01	-5.000000000000E-01	1.342000000000E-01
	O53	O	3.658000000000E-01	-3.658000000000E-01	-5.000000000000E-01
	O54	O	-5.000000000000E-01	3.658000000000E-01	-3.658000000000E-01
	O55	O	1.342000000000E-01	-1.342000000000E-01	-5.000000000000E-01
	O56	O	2.684000000000E-01	-3.658000000000E-01	1.342000000000E-01
	O57	O	-3.658000000000E-01	1.342000000000E-01	2.684000000000E-01
	O58	O	-2.684000000000E-01	-1.342000000000E-01	3.658000000000E-01
	O59	O	-1.342000000000E-01	3.658000000000E-01	-2.684000000000E-01
	O60	O	-5.000000000000E-01	1.342000000000E-01	-1.342000000000E-01
	O61	O	3.658000000000E-01	-5.000000000000E-01	-3.658000000000E-01
	O62	O	-1.342000000000E-01	-2.684000000000E-01	3.658000000000E-01
	O63	O	-3.658000000000E-01	2.684000000000E-01	1.342000000000E-01
	O64	O	1.342000000000E-01	-5.000000000000E-01	-1.342000000000E-01
	O65	O	-3.658000000000E-01	3.658000000000E-01	-5.000000000000E-01
	O66	O	-5.000000000000E-01	-3.658000000000E-01	3.658000000000E-01
	O67	O	-1.342000000000E-01	1.342000000000E-01	5.000000000000E-01
	O68	O	-2.684000000000E-01	3.658000000000E-01	-1.342000000000E-01
	O69	O	3.658000000000E-01	-1.342000000000E-01	-2.684000000000E-01
	O70	O	2.684000000000E-01	1.342000000000E-01	-3.658000000000E-01
	O71	O	1.342000000000E-01	-3.658000000000E-01	2.684000000000E-01
	O72	O	-5.000000000000E-01	-1.342000000000E-01	1.342000000000E-01
	O73	O	4.420000000000E-01	4.420000000000E-01	2.542000000000E-01
	O74	O	1.878000000000E-01	1.878000000000E-01	-2.542000000000E-01
	O75	O	-4.420000000000E-01	-1.878000000000E-01	7.998740809055E-18
	O76	O	-1.878000000000E-01	-4.420000000000E-01	-7.998740809055E-18
	O77	O	2.542000000000E-01	4.420000000000E-01	4.420000000000E-01
	O78	O	4.420000000000E-01	2.542000000000E-01	4.420000000000E-01
	O79	O	4.751241042220E-17	-1.878000000000E-01	-4.420000000000E-01
	O80	O	1.878000000000E-01	-2.542000000000E-01	1.878000000000E-01
	O81	O	-2.542000000000E-01	1.878000000000E-01	1.878000000000E-01
	O82	O	-1.878000000000E-01	-6.350989204031E-17	-4.420000000000E-01
	O83	O	-4.996904230819E-17	-4.420000000000E-01	-1.878000000000E-01
	O84	O	-4.420000000000E-01	1.091945157276E-16	-1.878000000000E-01
	O85	O	-4.420000000000E-01	-4.420000000000E-01	-2.542000000000E-01
	O86	O	-1.878000000000E-01	-1.878000000000E-01	2.542000000000E-01
	O87	O	1.878000000000E-01	4.420000000000E-01	6.350989204031E-17
	O88	O	4.420000000000E-01	1.878000000000E-01	-5.613999638234E-17
	O89	O	-4.420000000000E-01	-2.542000000000E-01	-4.420000000000E-01
	O90	O	-2.542000000000E-01	-4.420000000000E-01	-4.420000000000E-01
	O91	O	1.878000000000E-01	-1.730020292058E-17	4.420000000000E-01
	O92	O	2.542000000000E-01	-1.878000000000E-01	-1.878000000000E-01
	O93	O	-1.878000000000E-01	2.542000000000E-01	-1.878000000000E-01
	O94	O	8.389557199797E-17	1.878000000000E-01	4.420000000000E-01
	O95	O	4.420000000000E-01	-7.998740809055E-18	1.878000000000E-01
	O96	O	-3.329768453869E-17	4.420000000000E-01	1.878000000000E-01
	Si97	Si	-4.783000000000E-01	4.034000000000E-01	2.857000000000E-01
	Si98	Si	1.177000000000E-01	2.360000000000E-01	-2.857000000000E-01
	Si99	Si	4.783000000000E-01	-2.360000000000E-01	-1.183000000000E-01
	Si100	Si	-1.177000000000E-01	-4.034000000000E-01	1.183000000000E-01
	Si101	Si	2.857000000000E-01	-4.783000000000E-01	4.034000000000E-01
	Si102	Si	4.034000000000E-01	2.857000000000E-01	-4.783000000000E-01
	Si103	Si	1.183000000000E-01	-1.177000000000E-01	-4.034000000000E-01
	Si104	Si	2.360000000000E-01	-2.857000000000E-01	1.177000000000E-01
	Si105	Si	-2.857000000000E-01	1.177000000000E-01	2.360000000000E-01
	Si106	Si	-2.360000000000E-01	-1.183000000000E-01	4.783000000000E-01
	Si107	Si	-1.183000000000E-01	4.783000000000E-01	-2.360000000000E-01
	Si108	Si	-4.034000000000E-01	1.183000000000E-01	-1.177000000000E-01
	Si109	Si	-4.034000000000E-01	4.783000000000E-01	-2.857000000000E-01
	Si110	Si	-2.360000000000E-01	-1.177000000000E-01	2.857000000000E-01
	Si111	Si	2.360000000000E-01	-4.783000000000E-01	1.183000000000E-01
	Si112	Si	4.034000000000E-01	1.177000000000E-01	-1.183000000000E-01
	Si113	Si	4.783000000000E-01	-2.857000000000E-01	-4.034000000000E-01
	Si114	Si	-2.857000000000E-01	-4.034000000000E-01	4.783000000000E-01
	Si115	Si	1.177000000000E-01	-1.183000000000E-01	4.034000000000E-01
	Si116	Si	2.857000000000E-01	-2.360000000000E-01	-1.177000000000E-01
	Si117	Si	-1.177000000000E-01	2.857000000000E-01	-2.360000000000E-01
	Si118	Si	1.183000000000E-01	2.360000000000E-01	-4.783000000000E-01
	Si119	Si	-4.783000000000E-01	1.183000000000E-01	2.360000000000E-01
	Si120	Si	-1.183000000000E-01	4.034000000000E-01	1.177000000000E-01
	Si121	Si	4.783000000000E-01	-4.034000000000E-01	-2.857000000000E-01
	Si122	Si	-1.177000000000E-01	-2.360000000000E-01	2.857000000000E-01
	Si123	Si	-4.783000000000E-01	2.360000000000E-01	1.183000000000E-01
	Si124	Si	1.177000000000E-01	4.034000000000E-01	-1.183000000000E-01
	Si125	Si	-2.857000000000E-01	4.783000000000E-01	-4.034000000000E-01
	Si126	Si	-4.034000000000E-01	-2.857000000000E-01	4.783000000000E-01
	Si127	Si	-1.183000000000E-01	1.177000000000E-01	4.034000000000E-01
	Si128	Si	-2.360000000000E-01	2.857000000000E-01	-1.177000000000E-01
	Si129	Si	2.857000000000E-01	-1.177000000000E-01	-2.360000000000E-01
	Si130	Si	2.360000000000E-01	1.183000000000E-01	-4.783000000000E-01
	Si131	Si	1.183000000000E-01	-4.783000000000E-01	2.360000000000E-01
	Si132	Si	4.034000000000E-01	-1.183000000000E-01	1.177000000000E-01
	Si133	Si	4.034000000000E-01	-4.783000000000E-01	2.857000000000E-01
	Si134	Si	2.360000000000E-01	1.177000000000E-01	-2.857000000000E-01
	Si135	Si	-2.360000000000E-01	4.783000000000E-01	-1.183000000000E-01
	Si136	Si	-4.034000000000E-01	-1.177000000000E-01	1.183000000000E-01
	Si137	Si	-4.783000000000E-01	2.857000000000E-01	4.034000000000E-01
	Si138	Si	2.857000000000E-01	4.034000000000E-01	-4.783000000000E-01
	Si139	Si	-1.177000000000E-01	1.183000000000E-01	-4.034000000000E-01
	Si140	Si	-2.857000000000E-01	2.360000000000E-01	1.177000000000E-01
	Si141	Si	1.177000000000E-01	-2.857000000000E-01	2.360000000000E-01
	Si142	Si	-1.183000000000E-01	-2.360000000000E-01	4.783000000000E-01
	Si143	Si	4.783000000000E-01	-1.183000000000E-01	-2.360000000000E-01
	Si144	Si	1.183000000000E-01	-4.034000000000E-01	-1.177000000000E-01


data_ LAU
_chemical_name_common		'LAU'
_cell_length_a		9.72879358
_cell_length_b		19.45758716
_cell_length_c		7.61300000
_cell_angle_alpha		74.299839
_cell_angle_beta		105.700161
_cell_angle_gamma		97.125653
_space group_name_H-M_alt		'P 1'
_space_group_IT_number		1

loop_
	_atom_site_label
	_atom_site_type_symbol
	_atom_site_fract_x
	_atom_site_fract_y
	_atom_site_fract_z
	O1	O	-3.040000000000E-01	-3.400000000000E-03	2.784000000000E-01
	O2	O	-6.800000000000E-03	-1.520000000000E-01	-2.784000000000E-01
	O3	O	3.040000000000E-01	3.400000000000E-03	-2.784000000000E-01
	O4	O	6.800000000000E-03	1.520000000000E-01	2.784000000000E-01
	O5	O	-2.640000000000E-01	1.320000000000E-01	2.857000000000E-01
	O6	O	2.640000000000E-01	-1.320000000000E-01	-2.857000000000E-01
	O7	O	4.780000000000E-01	6.920000000000E-02	2.537000000000E-01
	O8	O	1.384000000000E-01	2.390000000000E-01	-2.537000000000E-01
	O9	O	-4.780000000000E-01	-6.920000000000E-02	-2.537000000000E-01
	O10	O	-1.384000000000E-01	-2.390000000000E-01	2.537000000000E-01
	O11	O	-3.266000000000E-01	3.560000000000E-02	-4.264000000000E-01
	O12	O	7.120000000000E-02	-1.633000000000E-01	4.264000000000E-01
	O13	O	3.266000000000E-01	-3.560000000000E-02	4.264000000000E-01
	O14	O	-7.120000000000E-02	1.633000000000E-01	-4.264000000000E-01
	O15	O	-2.723000000000E-01	7.500000000000E-04	-5.670000000000E-02
	O16	O	1.500000000000E-03	-1.361500000000E-01	5.670000000000E-02
	O17	O	2.723000000000E-01	-7.500000000000E-04	5.670000000000E-02
	O18	O	-1.500000000000E-03	1.361500000000E-01	-5.670000000000E-02
	O19	O	-2.094000000000E-01	-8.560000000000E-02	-2.326000000000E-01
	O20	O	-1.712000000000E-01	-1.047000000000E-01	2.326000000000E-01
	O21	O	2.094000000000E-01	8.560000000000E-02	2.326000000000E-01
	O22	O	1.712000000000E-01	1.047000000000E-01	-2.326000000000E-01
	O23	O	-4.930000000000E-02	2.465000000000E-02	2.099000000000E-01
	O24	O	4.930000000000E-02	-2.465000000000E-02	-2.099000000000E-01
	Si25	Si	-3.541000000000E-01	5.835000000000E-02	3.478000000000E-01
	Si26	Si	1.167000000000E-01	-1.770500000000E-01	-3.478000000000E-01
	Si27	Si	3.541000000000E-01	-5.835000000000E-02	-3.478000000000E-01
	Si28	Si	-1.167000000000E-01	1.770500000000E-01	3.478000000000E-01
	Si29	Si	-3.216000000000E-01	-2.960000000000E-02	-2.424000000000E-01
	Si30	Si	-5.920000000000E-02	-1.608000000000E-01	2.424000000000E-01
	Si31	Si	3.216000000000E-01	2.960000000000E-02	2.424000000000E-01
	Si32	Si	5.920000000000E-02	1.608000000000E-01	-2.424000000000E-01
	Si33	Si	-1.992000000000E-01	-2.060000000000E-02	1.660000000000E-01
	Si34	Si	-4.120000000000E-02	-9.960000000000E-02	-1.660000000000E-01
	Si35	Si	1.992000000000E-01	2.060000000000E-02	-1.660000000000E-01
	Si36	Si	4.120000000000E-02	9.960000000000E-02	1.660000000000E-01
	O37	O	-2.640000000000E-01	-3.680000000000E-01	2.857000000000E-01
	O38	O	-2.094000000000E-01	4.144000000000E-01	-2.326000000000E-01
	O39	O	-1.384000000000E-01	2.610000000000E-01	2.537000000000E-01
	O40	O	-1.712000000000E-01	3.953000000000E-01	2.326000000000E-01
	O41	O	3.040000000000E-01	-4.966000000000E-01	-2.784000000000E-01
	O42	O	2.094000000000E-01	-4.144000000000E-01	2.326000000000E-01
	O43	O	-3.266000000000E-01	-4.644000000000E-01	-4.264000000000E-01
	O44	O	1.712000000000E-01	-3.953000000000E-01	-2.326000000000E-01
	O45	O	2.640000000000E-01	3.680000000000E-01	-2.857000000000E-01
	O46	O	-4.930000000000E-02	-4.753500000000E-01	2.099000000000E-01
	O47	O	7.120000000000E-02	3.367000000000E-01	4.264000000000E-01
	O48	O	4.930000000000E-02	4.753500000000E-01	-2.099000000000E-01
	O49	O	-6.800000000000E-03	3.480000000000E-01	-2.784000000000E-01
	Si50	Si	-3.541000000000E-01	-4.416500000000E-01	3.478000000000E-01
	O51	O	3.266000000000E-01	4.644000000000E-01	4.264000000000E-01
	Si52	Si	1.167000000000E-01	3.229500000000E-01	-3.478000000000E-01
	O53	O	4.780000000000E-01	-4.308000000000E-01	2.537000000000E-01
	Si54	Si	3.541000000000E-01	4.416500000000E-01	-3.478000000000E-01
	O55	O	-7.120000000000E-02	-3.367000000000E-01	-4.264000000000E-01
	Si56	Si	-1.167000000000E-01	-3.229500000000E-01	3.478000000000E-01
	O57	O	6.800000000000E-03	-3.480000000000E-01	2.784000000000E-01
	Si58	Si	-3.216000000000E-01	4.704000000000E-01	-2.424000000000E-01
	O59	O	-2.723000000000E-01	-4.992500000000E-01	-5.670000000000E-02
	Si60	Si	-5.920000000000E-02	3.392000000000E-01	2.424000000000E-01
	O61	O	1.384000000000E-01	-2.610000000000E-01	-2.537000000000E-01
	Si62	Si	3.216000000000E-01	-4.704000000000E-01	2.424000000000E-01
	O63	O	1.500000000000E-03	3.638500000000E-01	5.670000000000E-02
	Si64	Si	5.920000000000E-02	-3.392000000000E-01	-2.424000000000E-01
	O65	O	-3.040000000000E-01	4.966000000000E-01	2.784000000000E-01
	Si66	Si	-1.992000000000E-01	4.794000000000E-01	1.660000000000E-01
	O67	O	2.723000000000E-01	4.992500000000E-01	5.670000000000E-02
	Si68	Si	-4.120000000000E-02	4.004000000000E-01	-1.660000000000E-01
	O69	O	-4.780000000000E-01	4.308000000000E-01	-2.537000000000E-01
	Si70	Si	1.992000000000E-01	-4.794000000000E-01	-1.660000000000E-01
	O71	O	-1.500000000000E-03	-3.638500000000E-01	-5.670000000000E-02
	Si72	Si	4.120000000000E-02	-4.004000000000E-01	1.660000000000E-01


data_ LEV
_chemical_name_common		'LEV'
_cell_length_a		21.39527213
_cell_length_b		10.69763606
_cell_length_c		10.69763606
_cell_angle_alpha		75.971152
_cell_angle_beta		75.971152
_cell_angle_gamma		75.971152
_space group_name_H-M_alt		'P 1'
_space_group_IT_number		1

loop_
	_atom_site_label
	_atom_site_type_symbol
	_atom_site_fract_x
	_atom_site_fract_y
	_atom_site_fract_z
	O1	O	8.630000000000E-02	-1.139000000000E-01	1.726000000000E-01
	O2	O	8.630000000000E-02	1.726000000000E-01	-1.139000000000E-01
	O3	O	-5.695000000000E-02	1.726000000000E-01	1.726000000000E-01
	O4	O	5.695000000000E-02	-1.726000000000E-01	-1.726000000000E-01
	O5	O	-8.630000000000E-02	-1.726000000000E-01	1.139000000000E-01
	O6	O	-8.630000000000E-02	1.139000000000E-01	-1.726000000000E-01
	O7	O	7.220000000000E-02	4.198000000000E-01	-2.351000000000E-01
	O8	O	-1.175500000000E-01	1.444000000000E-01	4.198000000000E-01
	O9	O	2.099000000000E-01	-2.351000000000E-01	1.444000000000E-01
	O10	O	-2.099000000000E-01	-1.444000000000E-01	2.351000000000E-01
	O11	O	-7.220000000000E-02	2.351000000000E-01	-4.198000000000E-01
	O12	O	1.175500000000E-01	-4.198000000000E-01	-1.444000000000E-01
	O13	O	-7.220000000000E-02	-4.198000000000E-01	2.351000000000E-01
	O14	O	1.175500000000E-01	-1.444000000000E-01	-4.198000000000E-01
	O15	O	-2.099000000000E-01	2.351000000000E-01	-1.444000000000E-01
	O16	O	2.099000000000E-01	1.444000000000E-01	-2.351000000000E-01
	O17	O	7.220000000000E-02	-2.351000000000E-01	4.198000000000E-01
	O18	O	-1.175500000000E-01	4.198000000000E-01	1.444000000000E-01
	O19	O	-2.070000000000E-02	3.414000000000E-01	-4.140000000000E-02
	O20	O	-2.070000000000E-02	-4.140000000000E-02	3.414000000000E-01
	O21	O	1.707000000000E-01	-4.140000000000E-02	-4.140000000000E-02
	O22	O	-1.707000000000E-01	4.140000000000E-02	4.140000000000E-02
	O23	O	2.070000000000E-02	4.140000000000E-02	-3.414000000000E-01
	O24	O	2.070000000000E-02	-3.414000000000E-01	4.140000000000E-02
	O25	O	1.339000000000E-01	-2.678000000000E-01	4.960035816638E-17
	O26	O	-1.035604561067E-17	2.678000000000E-01	-2.678000000000E-01
	O27	O	-1.339000000000E-01	-7.632804274553E-17	2.678000000000E-01
	O28	O	-1.339000000000E-01	2.678000000000E-01	-4.960035816638E-17
	O29	O	1.035604561067E-17	-2.678000000000E-01	2.678000000000E-01
	O30	O	1.339000000000E-01	7.632804274553E-17	-2.678000000000E-01
	O31	O	-1.996000000000E-01	2.627100000000E-01	-3.992000000000E-01
	O32	O	-1.996000000000E-01	-3.992000000000E-01	2.627100000000E-01
	O33	O	1.313550000000E-01	-3.992000000000E-01	-3.992000000000E-01
	O34	O	-1.313550000000E-01	3.992000000000E-01	3.992000000000E-01
	O35	O	1.996000000000E-01	3.992000000000E-01	-2.627100000000E-01
	O36	O	1.996000000000E-01	-2.627100000000E-01	3.992000000000E-01
	Si37	Si	3.440000000000E-02	3.005000000000E-01	-1.644000000000E-01
	Si38	Si	-8.220000000000E-02	6.880000000000E-02	3.005000000000E-01
	Si39	Si	1.502500000000E-01	-1.644000000000E-01	6.880000000000E-02
	Si40	Si	-1.502500000000E-01	-6.880000000000E-02	1.644000000000E-01
	Si41	Si	-3.440000000000E-02	1.644000000000E-01	-3.005000000000E-01
	Si42	Si	8.220000000000E-02	-3.005000000000E-01	-6.880000000000E-02
	Si43	Si	-3.440000000000E-02	-3.005000000000E-01	1.644000000000E-01
	Si44	Si	8.220000000000E-02	-6.880000000000E-02	-3.005000000000E-01
	Si45	Si	-1.502500000000E-01	1.644000000000E-01	-6.880000000000E-02
	Si46	Si	1.502500000000E-01	6.880000000000E-02	-1.644000000000E-01
	Si47	Si	3.440000000000E-02	-1.644000000000E-01	3.005000000000E-01
	Si48	Si	-8.220000000000E-02	3.005000000000E-01	6.880000000000E-02
	Si49	Si	-1.301500000000E-01	2.603000000000E-01	5.000000000000E-01
	Si50	Si	2.500000000000E-01	-2.603000000000E-01	2.603000000000E-01
	Si51	Si	1.301500000000E-01	5.000000000000E-01	-2.603000000000E-01
	Si52	Si	1.301500000000E-01	-2.603000000000E-01	-5.000000000000E-01
	Si53	Si	2.500000000000E-01	2.603000000000E-01	-2.603000000000E-01
	Si54	Si	-1.301500000000E-01	-5.000000000000E-01	2.603000000000E-01
	O55	O	-3.824500000000E-01	-1.444000000000E-01	-4.198000000000E-01
	O56	O	3.661000000000E-01	2.678000000000E-01	0.000000000000E+00
	O57	O	-4.430500000000E-01	-1.726000000000E-01	-1.726000000000E-01
	O58	O	-5.000000000000E-01	-2.678000000000E-01	2.678000000000E-01
	O59	O	2.901000000000E-01	2.351000000000E-01	-1.444000000000E-01
	O60	O	-3.661000000000E-01	5.551115123126E-17	-2.678000000000E-01
	O61	O	3.824500000000E-01	1.444000000000E-01	4.198000000000E-01
	O62	O	3.004000000000E-01	2.627100000000E-01	-3.992000000000E-01
	O63	O	-2.901000000000E-01	1.444000000000E-01	-2.351000000000E-01
	O64	O	3.004000000000E-01	-3.992000000000E-01	2.627100000000E-01
	O65	O	-4.137000000000E-01	-1.139000000000E-01	1.726000000000E-01
	O66	O	-3.686450000000E-01	-3.992000000000E-01	-3.992000000000E-01
	O67	O	-4.278000000000E-01	-2.351000000000E-01	4.198000000000E-01
	O68	O	3.686450000000E-01	3.992000000000E-01	3.992000000000E-01
	O69	O	-2.901000000000E-01	-2.351000000000E-01	1.444000000000E-01
	O70	O	-3.004000000000E-01	3.992000000000E-01	-2.627100000000E-01
	O71	O	3.824500000000E-01	4.198000000000E-01	1.444000000000E-01
	O72	O	-3.004000000000E-01	-2.627100000000E-01	3.992000000000E-01
	O73	O	4.137000000000E-01	-1.726000000000E-01	1.139000000000E-01
	Si74	Si	-4.656000000000E-01	3.005000000000E-01	-1.644000000000E-01
	O75	O	4.793000000000E-01	3.414000000000E-01	-4.140000000000E-02
	Si76	Si	4.178000000000E-01	6.880000000000E-02	3.005000000000E-01
	O77	O	2.901000000000E-01	-1.444000000000E-01	2.351000000000E-01
	Si78	Si	-3.497500000000E-01	-1.644000000000E-01	6.880000000000E-02
	O79	O	4.793000000000E-01	-4.140000000000E-02	3.414000000000E-01
	Si80	Si	3.497500000000E-01	-6.880000000000E-02	1.644000000000E-01
	O81	O	4.430500000000E-01	1.726000000000E-01	1.726000000000E-01
	Si82	Si	4.656000000000E-01	1.644000000000E-01	-3.005000000000E-01
	O83	O	-3.293000000000E-01	-4.140000000000E-02	-4.140000000000E-02
	Si84	Si	-4.178000000000E-01	-3.005000000000E-01	-6.880000000000E-02
	O85	O	4.278000000000E-01	2.351000000000E-01	-4.198000000000E-01
	Si86	Si	4.656000000000E-01	-3.005000000000E-01	1.644000000000E-01
	O87	O	3.293000000000E-01	4.140000000000E-02	4.140000000000E-02
	Si88	Si	-4.178000000000E-01	-6.880000000000E-02	-3.005000000000E-01
	O89	O	4.137000000000E-01	1.139000000000E-01	-1.726000000000E-01
	Si90	Si	3.497500000000E-01	1.644000000000E-01	-6.880000000000E-02
	O91	O	-4.793000000000E-01	4.140000000000E-02	-3.414000000000E-01
	Si92	Si	-3.497500000000E-01	6.880000000000E-02	-1.644000000000E-01
	O93	O	-3.824500000000E-01	-4.198000000000E-01	-1.444000000000E-01
	Si94	Si	-4.656000000000E-01	-1.644000000000E-01	3.005000000000E-01
	O95	O	-4.793000000000E-01	-3.414000000000E-01	4.140000000000E-02
	Si96	Si	4.178000000000E-01	3.005000000000E-01	6.880000000000E-02
	O97	O	-4.137000000000E-01	1.726000000000E-01	-1.139000000000E-01
	Si98	Si	3.698500000000E-01	2.603000000000E-01	-5.000000000000E-01
	O99	O	-3.661000000000E-01	-2.678000000000E-01	-1.110223024625E-16
	Si100	Si	-2.500000000000E-01	-2.603000000000E-01	2.603000000000E-01
	O101	O	4.278000000000E-01	-4.198000000000E-01	2.351000000000E-01
	Si102	Si	-3.698500000000E-01	5.000000000000E-01	-2.603000000000E-01
	O103	O	-5.000000000000E-01	2.678000000000E-01	-2.678000000000E-01
	Si104	Si	-3.698500000000E-01	-2.603000000000E-01	5.000000000000E-01
	O105	O	-4.278000000000E-01	4.198000000000E-01	-2.351000000000E-01
	Si106	Si	-2.500000000000E-01	2.603000000000E-01	-2.603000000000E-01
	O107	O	3.661000000000E-01	0.000000000000E+00	2.678000000000E-01
	Si108	Si	3.698500000000E-01	5.000000000000E-01	2.603000000000E-01


data_ LIO
_chemical_name_common		'LIO'
_cell_length_a		12.28100000
_cell_length_b		12.28100000
_cell_length_c		15.63200000
_cell_angle_alpha		90.000000
_cell_angle_beta		90.000000
_cell_angle_gamma		120.000000
_space group_name_H-M_alt		'P 1'
_space_group_IT_number		1

loop_
	_atom_site_label
	_atom_site_type_symbol
	_atom_site_fract_x
	_atom_site_fract_y
	_atom_site_fract_z
	O1	O	3.166000000000E-01	-2.300000000000E-02	8.400000000000E-02
	O2	O	2.300000000000E-02	3.396000000000E-01	8.400000000000E-02
	O3	O	-3.396000000000E-01	-3.166000000000E-01	8.400000000000E-02
	O4	O	2.300000000000E-02	-3.166000000000E-01	-8.400000000000E-02
	O5	O	3.166000000000E-01	3.396000000000E-01	-8.400000000000E-02
	O6	O	-3.396000000000E-01	-2.300000000000E-02	-8.400000000000E-02
	O7	O	-3.396000000000E-01	-2.300000000000E-02	8.400000000000E-02
	O8	O	3.166000000000E-01	3.396000000000E-01	8.400000000000E-02
	O9	O	2.300000000000E-02	-3.166000000000E-01	8.400000000000E-02
	O10	O	3.166000000000E-01	-2.300000000000E-02	-8.400000000000E-02
	O11	O	-3.396000000000E-01	-3.166000000000E-01	-8.400000000000E-02
	O12	O	2.300000000000E-02	3.396000000000E-01	-8.400000000000E-02
	O13	O	2.314000000000E-01	-2.314000000000E-01	1.732000000000E-01
	O14	O	2.314000000000E-01	4.628000000000E-01	1.732000000000E-01
	O15	O	-4.628000000000E-01	-2.314000000000E-01	1.732000000000E-01
	O16	O	2.314000000000E-01	-2.314000000000E-01	-1.732000000000E-01
	O17	O	2.314000000000E-01	4.628000000000E-01	-1.732000000000E-01
	O18	O	-4.628000000000E-01	-2.314000000000E-01	-1.732000000000E-01
	O19	O	3.004000000000E-01	-1.700000000000E-02	2.512000000000E-01
	O20	O	1.700000000000E-02	3.174000000000E-01	2.512000000000E-01
	O21	O	-3.174000000000E-01	-3.004000000000E-01	2.512000000000E-01
	O22	O	1.700000000000E-02	-3.004000000000E-01	-2.512000000000E-01
	O23	O	3.004000000000E-01	3.174000000000E-01	-2.512000000000E-01
	O24	O	-3.174000000000E-01	-1.700000000000E-02	-2.512000000000E-01
	O25	O	-3.174000000000E-01	-1.700000000000E-02	2.512000000000E-01
	O26	O	3.004000000000E-01	3.174000000000E-01	2.512000000000E-01
	O27	O	1.700000000000E-02	-3.004000000000E-01	2.512000000000E-01
	O28	O	3.004000000000E-01	-1.700000000000E-02	-2.512000000000E-01
	O29	O	-3.174000000000E-01	-3.004000000000E-01	-2.512000000000E-01
	O30	O	1.700000000000E-02	3.174000000000E-01	-2.512000000000E-01
	O31	O	4.708000000000E-01	-4.708000000000E-01	1.813000000000E-01
	O32	O	4.708000000000E-01	-5.840000000000E-02	1.813000000000E-01
	O33	O	5.840000000000E-02	-4.708000000000E-01	1.813000000000E-01
	O34	O	4.708000000000E-01	-4.708000000000E-01	-1.813000000000E-01
	O35	O	4.708000000000E-01	-5.840000000000E-02	-1.813000000000E-01
	O36	O	5.840000000000E-02	-4.708000000000E-01	-1.813000000000E-01
	O37	O	-1.294000000000E-01	1.294000000000E-01	3.521000000000E-01
	O38	O	-1.294000000000E-01	-2.588000000000E-01	3.521000000000E-01
	O39	O	2.588000000000E-01	1.294000000000E-01	3.521000000000E-01
	O40	O	-1.294000000000E-01	1.294000000000E-01	-3.521000000000E-01
	O41	O	-1.294000000000E-01	-2.588000000000E-01	-3.521000000000E-01
	O42	O	2.588000000000E-01	1.294000000000E-01	-3.521000000000E-01
	O43	O	1.158000000000E-01	-1.158000000000E-01	3.632000000000E-01
	O44	O	1.158000000000E-01	2.316000000000E-01	3.632000000000E-01
	O45	O	-2.316000000000E-01	-1.158000000000E-01	3.632000000000E-01
	O46	O	1.158000000000E-01	-1.158000000000E-01	-3.632000000000E-01
	O47	O	1.158000000000E-01	2.316000000000E-01	-3.632000000000E-01
	O48	O	-2.316000000000E-01	-1.158000000000E-01	-3.632000000000E-01
	O49	O	3.503000000000E-01	-5.900000000000E-03	4.159000000000E-01
	O50	O	5.900000000000E-03	3.562000000000E-01	4.159000000000E-01
	O51	O	-3.562000000000E-01	-3.503000000000E-01	4.159000000000E-01
	O52	O	5.900000000000E-03	-3.503000000000E-01	-4.159000000000E-01
	O53	O	3.503000000000E-01	3.562000000000E-01	-4.159000000000E-01
	O54	O	-3.562000000000E-01	-5.900000000000E-03	-4.159000000000E-01
	O55	O	-3.562000000000E-01	-5.900000000000E-03	4.159000000000E-01
	O56	O	3.503000000000E-01	3.562000000000E-01	4.159000000000E-01
	O57	O	5.900000000000E-03	-3.503000000000E-01	4.159000000000E-01
	O58	O	3.503000000000E-01	-5.900000000000E-03	-4.159000000000E-01
	O59	O	-3.562000000000E-01	-3.503000000000E-01	-4.159000000000E-01
	O60	O	5.900000000000E-03	3.562000000000E-01	-4.159000000000E-01
	O61	O	-1.964500000000E-01	1.964500000000E-01	-5.000000000000E-01
	O62	O	-1.964500000000E-01	-3.929000000000E-01	-5.000000000000E-01
	O63	O	3.929000000000E-01	1.964500000000E-01	-5.000000000000E-01
	O64	O	-4.372500000000E-01	4.372500000000E-01	-5.000000000000E-01
	O65	O	-4.372500000000E-01	1.255000000000E-01	-5.000000000000E-01
	O66	O	-1.255000000000E-01	4.372500000000E-01	-5.000000000000E-01
	O67	O	-1.368000000000E-01	1.368000000000E-01	0.000000000000E+00
	O68	O	-1.368000000000E-01	-2.736000000000E-01	0.000000000000E+00
	O69	O	2.736000000000E-01	1.368000000000E-01	0.000000000000E+00
	O70	O	1.043000000000E-01	-1.043000000000E-01	0.000000000000E+00
	O71	O	1.043000000000E-01	2.086000000000E-01	0.000000000000E+00
	O72	O	-2.086000000000E-01	-1.043000000000E-01	0.000000000000E+00
	Si73	Si	3.299000000000E-01	-8.260000000000E-02	1.724000000000E-01
	Si74	Si	8.260000000000E-02	4.125000000000E-01	1.724000000000E-01
	Si75	Si	-4.125000000000E-01	-3.299000000000E-01	1.724000000000E-01
	Si76	Si	8.260000000000E-02	-3.299000000000E-01	-1.724000000000E-01
	Si77	Si	3.299000000000E-01	4.125000000000E-01	-1.724000000000E-01
	Si78	Si	-4.125000000000E-01	-8.260000000000E-02	-1.724000000000E-01
	Si79	Si	-4.125000000000E-01	-8.260000000000E-02	1.724000000000E-01
	Si80	Si	3.299000000000E-01	4.125000000000E-01	1.724000000000E-01
	Si81	Si	8.260000000000E-02	-3.299000000000E-01	1.724000000000E-01
	Si82	Si	3.299000000000E-01	-8.260000000000E-02	-1.724000000000E-01
	Si83	Si	-4.125000000000E-01	-3.299000000000E-01	-1.724000000000E-01
	Si84	Si	8.260000000000E-02	4.125000000000E-01	-1.724000000000E-01
	Si85	Si	2.563000000000E-01	-2.500000000000E-03	3.453000000000E-01
	Si86	Si	2.500000000000E-03	2.588000000000E-01	3.453000000000E-01
	Si87	Si	-2.588000000000E-01	-2.563000000000E-01	3.453000000000E-01
	Si88	Si	2.500000000000E-03	-2.563000000000E-01	-3.453000000000E-01
	Si89	Si	2.563000000000E-01	2.588000000000E-01	-3.453000000000E-01
	Si90	Si	-2.588000000000E-01	-2.500000000000E-03	-3.453000000000E-01
	Si91	Si	-2.588000000000E-01	-2.500000000000E-03	3.453000000000E-01
	Si92	Si	2.563000000000E-01	2.588000000000E-01	3.453000000000E-01
	Si93	Si	2.500000000000E-03	-2.563000000000E-01	3.453000000000E-01
	Si94	Si	2.563000000000E-01	-2.500000000000E-03	-3.453000000000E-01
	Si95	Si	-2.588000000000E-01	-2.563000000000E-01	-3.453000000000E-01
	Si96	Si	2.500000000000E-03	2.588000000000E-01	-3.453000000000E-01
	Si97	Si	4.145000000000E-01	7.770000000000E-02	-5.000000000000E-01
	Si98	Si	-7.770000000000E-02	3.368000000000E-01	-5.000000000000E-01
	Si99	Si	-3.368000000000E-01	-4.145000000000E-01	-5.000000000000E-01
	Si100	Si	-7.770000000000E-02	-4.145000000000E-01	-5.000000000000E-01
	Si101	Si	4.145000000000E-01	3.368000000000E-01	-5.000000000000E-01
	Si102	Si	-3.368000000000E-01	7.770000000000E-02	-5.000000000000E-01
	Si103	Si	2.525000000000E-01	-3.400000000000E-03	0.000000000000E+00
	Si104	Si	3.400000000000E-03	2.559000000000E-01	0.000000000000E+00
	Si105	Si	-2.559000000000E-01	-2.525000000000E-01	0.000000000000E+00
	Si106	Si	3.400000000000E-03	-2.525000000000E-01	0.000000000000E+00
	Si107	Si	2.525000000000E-01	2.559000000000E-01	0.000000000000E+00
	Si108	Si	-2.559000000000E-01	-3.400000000000E-03	0.000000000000E+00


data_ LOS
_chemical_name_common		'LOS'
_cell_length_a		12.60700000
_cell_length_b		12.60700000
_cell_length_c		20.68000000
_cell_angle_alpha		90.000000
_cell_angle_beta		90.000000
_cell_angle_gamma		120.000000
_space group_name_H-M_alt		'P 1'
_space_group_IT_number		1

loop_
	_atom_site_label
	_atom_site_type_symbol
	_atom_site_fract_x
	_atom_site_fract_y
	_atom_site_fract_z
	O1	O	-2.355500000000E-01	-4.711000000000E-01	1.250000000000E-01
	O2	O	2.355500000000E-01	4.711000000000E-01	-1.250000000000E-01
	O3	O	4.711000000000E-01	2.355500000000E-01	1.250000000000E-01
	O4	O	-2.355500000000E-01	2.355500000000E-01	1.250000000000E-01
	O5	O	2.355500000000E-01	-2.355500000000E-01	-1.250000000000E-01
	O6	O	-4.711000000000E-01	-2.355500000000E-01	-1.250000000000E-01
	O7	O	3.372000000000E-01	3.040000000000E-02	6.145000000000E-02
	O8	O	-3.372000000000E-01	-3.040000000000E-02	-1.885500000000E-01
	O9	O	-3.040000000000E-02	3.068000000000E-01	6.145000000000E-02
	O10	O	-3.068000000000E-01	-3.372000000000E-01	6.145000000000E-02
	O11	O	3.068000000000E-01	3.372000000000E-01	-1.885500000000E-01
	O12	O	3.040000000000E-02	-3.068000000000E-01	-1.885500000000E-01
	O13	O	3.068000000000E-01	-3.040000000000E-02	-6.145000000000E-02
	O14	O	-3.372000000000E-01	-3.068000000000E-01	-6.145000000000E-02
	O15	O	3.040000000000E-02	3.372000000000E-01	-6.145000000000E-02
	O16	O	-3.040000000000E-02	-3.372000000000E-01	1.885500000000E-01
	O17	O	3.372000000000E-01	3.068000000000E-01	1.885500000000E-01
	O18	O	-3.068000000000E-01	3.040000000000E-02	1.885500000000E-01
	O19	O	-3.372000000000E-01	-3.040000000000E-02	-6.145000000000E-02
	O20	O	3.372000000000E-01	3.040000000000E-02	1.885500000000E-01
	O21	O	3.040000000000E-02	-3.068000000000E-01	-6.145000000000E-02
	O22	O	3.068000000000E-01	3.372000000000E-01	-6.145000000000E-02
	O23	O	-3.068000000000E-01	-3.372000000000E-01	1.885500000000E-01
	O24	O	-3.040000000000E-02	3.068000000000E-01	1.885500000000E-01
	O25	O	-3.068000000000E-01	3.040000000000E-02	6.145000000000E-02
	O26	O	3.372000000000E-01	3.068000000000E-01	6.145000000000E-02
	O27	O	-3.040000000000E-02	-3.372000000000E-01	6.145000000000E-02
	O28	O	3.040000000000E-02	3.372000000000E-01	-1.885500000000E-01
	O29	O	-3.372000000000E-01	-3.068000000000E-01	-1.885500000000E-01
	O30	O	3.068000000000E-01	-3.040000000000E-02	-1.885500000000E-01
	O31	O	-4.681500000000E-01	6.370000000000E-02	1.250000000000E-01
	O32	O	4.681500000000E-01	-6.370000000000E-02	-1.250000000000E-01
	O33	O	-6.370000000000E-02	4.681500000000E-01	1.250000000000E-01
	O34	O	-4.681500000000E-01	4.681500000000E-01	1.250000000000E-01
	O35	O	4.681500000000E-01	-4.681500000000E-01	-1.250000000000E-01
	O36	O	6.370000000000E-02	-4.681500000000E-01	-1.250000000000E-01
	O37	O	-1.163000000000E-01	-2.326000000000E-01	-2.337000000000E-01
	O38	O	1.163000000000E-01	2.326000000000E-01	1.630000000000E-02
	O39	O	2.326000000000E-01	1.163000000000E-01	-2.337000000000E-01
	O40	O	-1.163000000000E-01	1.163000000000E-01	-2.337000000000E-01
	O41	O	1.163000000000E-01	-1.163000000000E-01	1.630000000000E-02
	O42	O	-2.326000000000E-01	-1.163000000000E-01	1.630000000000E-02
	O43	O	1.163000000000E-01	2.326000000000E-01	2.337000000000E-01
	O44	O	1.163000000000E-01	-1.163000000000E-01	2.337000000000E-01
	O45	O	-2.326000000000E-01	-1.163000000000E-01	2.337000000000E-01
	O46	O	2.326000000000E-01	1.163000000000E-01	-1.630000000000E-02
	O47	O	-1.163000000000E-01	1.163000000000E-01	-1.630000000000E-02
	O48	O	-1.163000000000E-01	-2.326000000000E-01	-1.630000000000E-02
	Si49	Si	4.195000000000E-01	9.000000000000E-02	1.250000000000E-01
	Si50	Si	-4.195000000000E-01	-9.000000000000E-02	-1.250000000000E-01
	Si51	Si	-9.000000000000E-02	3.295000000000E-01	1.250000000000E-01
	Si52	Si	-3.295000000000E-01	-4.195000000000E-01	1.250000000000E-01
	Si53	Si	3.295000000000E-01	4.195000000000E-01	-1.250000000000E-01
	Si54	Si	9.000000000000E-02	-3.295000000000E-01	-1.250000000000E-01
	Si55	Si	3.295000000000E-01	-9.000000000000E-02	-1.250000000000E-01
	Si56	Si	-4.195000000000E-01	-3.295000000000E-01	-1.250000000000E-01
	Si57	Si	9.000000000000E-02	4.195000000000E-01	-1.250000000000E-01
	Si58	Si	-9.000000000000E-02	-4.195000000000E-01	1.250000000000E-01
	Si59	Si	4.195000000000E-01	3.295000000000E-01	1.250000000000E-01
	Si60	Si	-3.295000000000E-01	9.000000000000E-02	1.250000000000E-01
	Si61	Si	2.482000000000E-01	-2.775557561563E-17	0.000000000000E+00
	Si62	Si	-2.482000000000E-01	-1.387778780781E-17	2.500000000000E-01
	Si63	Si	0.000000000000E+00	2.482000000000E-01	0.000000000000E+00
	Si64	Si	-2.482000000000E-01	-2.482000000000E-01	0.000000000000E+00
	Si65	Si	2.482000000000E-01	2.482000000000E-01	2.500000000000E-01
	Si66	Si	0.000000000000E+00	-2.482000000000E-01	2.500000000000E-01
	Si67	Si	-2.482000000000E-01	-1.387778780781E-17	0.000000000000E+00
	Si68	Si	2.482000000000E-01	1.387778780781E-17	2.500000000000E-01
	Si69	Si	0.000000000000E+00	-2.482000000000E-01	0.000000000000E+00
	Si70	Si	2.482000000000E-01	2.482000000000E-01	0.000000000000E+00
	Si71	Si	-2.482000000000E-01	-2.482000000000E-01	2.500000000000E-01
	Si72	Si	0.000000000000E+00	2.482000000000E-01	2.500000000000E-01
	O73	O	2.355500000000E-01	-2.355500000000E-01	3.750000000000E-01
	O74	O	-1.163000000000E-01	-2.326000000000E-01	2.663000000000E-01
	O75	O	-3.372000000000E-01	-3.040000000000E-02	4.385500000000E-01
	O76	O	1.163000000000E-01	2.326000000000E-01	-4.837000000000E-01
	O77	O	-3.068000000000E-01	-3.372000000000E-01	-4.385500000000E-01
	O78	O	2.326000000000E-01	1.163000000000E-01	2.663000000000E-01
	O79	O	3.372000000000E-01	3.040000000000E-02	-3.114500000000E-01
	O80	O	-1.163000000000E-01	1.163000000000E-01	2.663000000000E-01
	O81	O	4.711000000000E-01	2.355500000000E-01	-3.750000000000E-01
	O82	O	1.163000000000E-01	-1.163000000000E-01	-4.837000000000E-01
	O83	O	3.040000000000E-02	-3.068000000000E-01	4.385500000000E-01
	O84	O	-2.326000000000E-01	-1.163000000000E-01	-4.837000000000E-01
	O85	O	3.068000000000E-01	3.372000000000E-01	3.114500000000E-01
	O86	O	1.163000000000E-01	2.326000000000E-01	-2.663000000000E-01
	O87	O	3.068000000000E-01	3.372000000000E-01	4.385500000000E-01
	O88	O	1.163000000000E-01	-1.163000000000E-01	-2.663000000000E-01
	O89	O	-4.711000000000E-01	-2.355500000000E-01	3.750000000000E-01
	O90	O	-2.326000000000E-01	-1.163000000000E-01	-2.663000000000E-01
	O91	O	-3.068000000000E-01	-3.372000000000E-01	-3.114500000000E-01
	O92	O	2.326000000000E-01	1.163000000000E-01	4.837000000000E-01
	O93	O	3.040000000000E-02	-3.068000000000E-01	3.114500000000E-01
	O94	O	-1.163000000000E-01	1.163000000000E-01	4.837000000000E-01
	O95	O	-3.040000000000E-02	3.068000000000E-01	-3.114500000000E-01
	O96	O	-1.163000000000E-01	-2.326000000000E-01	4.837000000000E-01
	O97	O	2.355500000000E-01	4.711000000000E-01	3.750000000000E-01
	Si98	Si	4.195000000000E-01	9.000000000000E-02	-3.750000000000E-01
	O99	O	-3.068000000000E-01	3.040000000000E-02	-4.385500000000E-01
	Si100	Si	-4.195000000000E-01	-9.000000000000E-02	3.750000000000E-01
	O101	O	3.068000000000E-01	-3.040000000000E-02	4.385500000000E-01
	Si102	Si	-9.000000000000E-02	3.295000000000E-01	-3.750000000000E-01
	O103	O	3.372000000000E-01	3.068000000000E-01	-4.385500000000E-01
	Si104	Si	-3.295000000000E-01	-4.195000000000E-01	-3.750000000000E-01
	O105	O	3.372000000000E-01	3.040000000000E-02	-4.385500000000E-01
	Si106	Si	3.295000000000E-01	4.195000000000E-01	3.750000000000E-01
	O107	O	-3.040000000000E-02	-3.372000000000E-01	-4.385500000000E-01
	Si108	Si	9.000000000000E-02	-3.295000000000E-01	3.750000000000E-01
	O109	O	-3.372000000000E-01	-3.068000000000E-01	4.385500000000E-01
	Si110	Si	3.295000000000E-01	-9.000000000000E-02	3.750000000000E-01
	O111	O	3.040000000000E-02	3.372000000000E-01	3.114500000000E-01
	Si112	Si	-4.195000000000E-01	-3.295000000000E-01	3.750000000000E-01
	O113	O	-2.355500000000E-01	2.355500000000E-01	-3.750000000000E-01
	Si114	Si	9.000000000000E-02	4.195000000000E-01	3.750000000000E-01
	O115	O	-3.372000000000E-01	-3.068000000000E-01	3.114500000000E-01
	Si116	Si	-9.000000000000E-02	-4.195000000000E-01	-3.750000000000E-01
	O117	O	3.040000000000E-02	3.372000000000E-01	4.385500000000E-01
	Si118	Si	4.195000000000E-01	3.295000000000E-01	-3.750000000000E-01
	O119	O	3.068000000000E-01	-3.040000000000E-02	3.114500000000E-01
	Si120	Si	-3.295000000000E-01	9.000000000000E-02	-3.750000000000E-01
	O121	O	-3.372000000000E-01	-3.040000000000E-02	3.114500000000E-01
	Si122	Si	2.482000000000E-01	-2.775557561563E-17	-5.000000000000E-01
	O123	O	-4.681500000000E-01	6.370000000000E-02	-3.750000000000E-01
	Si124	Si	-2.482000000000E-01	-1.387778780781E-17	-2.500000000000E-01
	O125	O	-3.040000000000E-02	-3.372000000000E-01	-3.114500000000E-01
	Si126	Si	0.000000000000E+00	2.482000000000E-01	-5.000000000000E-01
	O127	O	4.681500000000E-01	-6.370000000000E-02	3.750000000000E-01
	Si128	Si	-2.482000000000E-01	-2.482000000000E-01	-5.000000000000E-01
	O129	O	-2.355500000000E-01	-4.711000000000E-01	-3.750000000000E-01
	Si130	Si	2.482000000000E-01	2.482000000000E-01	-2.500000000000E-01
	O131	O	-6.370000000000E-02	4.681500000000E-01	-3.750000000000E-01
	Si132	Si	0.000000000000E+00	-2.482000000000E-01	-2.500000000000E-01
	O133	O	3.372000000000E-01	3.068000000000E-01	-3.114500000000E-01
	Si134	Si	-2.482000000000E-01	-1.387778780781E-17	-5.000000000000E-01
	O135	O	-4.681500000000E-01	4.681500000000E-01	-3.750000000000E-01
	Si136	Si	2.482000000000E-01	1.387778780781E-17	-2.500000000000E-01
	O137	O	-3.040000000000E-02	3.068000000000E-01	-4.385500000000E-01
	Si138	Si	0.000000000000E+00	-2.482000000000E-01	-5.000000000000E-01
	O139	O	4.681500000000E-01	-4.681500000000E-01	3.750000000000E-01
	Si140	Si	2.482000000000E-01	2.482000000000E-01	-5.000000000000E-01
	O141	O	-3.068000000000E-01	3.040000000000E-02	-3.114500000000E-01
	Si142	Si	-2.482000000000E-01	-2.482000000000E-01	-2.500000000000E-01
	O143	O	6.370000000000E-02	-4.681500000000E-01	3.750000000000E-01
	Si144	Si	0.000000000000E+00	2.482000000000E-01	-2.500000000000E-01


data_ LTA
_chemical_name_common		'LTA'
_cell_length_a		11.91900000
_cell_length_b		11.91900000
_cell_length_c		11.91900000
_cell_angle_alpha		90.000000
_cell_angle_beta		90.000000
_cell_angle_gamma		90.000000
_space group_name_H-M_alt		'P 1'
_space_group_IT_number		1

loop_
	_atom_site_label
	_atom_site_type_symbol
	_atom_site_fract_x
	_atom_site_fract_y
	_atom_site_fract_z
	O1	O	0.000000000000E+00	2.122000000000E-01	-5.000000000000E-01
	O2	O	0.000000000000E+00	-2.122000000000E-01	-5.000000000000E-01
	O3	O	5.000000000000E-01	0.000000000000E+00	2.122000000000E-01
	O4	O	2.122000000000E-01	-5.000000000000E-01	0.000000000000E+00
	O5	O	-2.122000000000E-01	-5.000000000000E-01	0.000000000000E+00
	O6	O	5.000000000000E-01	0.000000000000E+00	-2.122000000000E-01
	O7	O	-2.122000000000E-01	0.000000000000E+00	-5.000000000000E-01
	O8	O	2.122000000000E-01	0.000000000000E+00	-5.000000000000E-01
	O9	O	0.000000000000E+00	-5.000000000000E-01	-2.122000000000E-01
	O10	O	5.000000000000E-01	-2.122000000000E-01	0.000000000000E+00
	O11	O	5.000000000000E-01	2.122000000000E-01	0.000000000000E+00
	O12	O	0.000000000000E+00	-5.000000000000E-01	2.122000000000E-01
	O13	O	1.103000000000E-01	1.103000000000E-01	3.384000000000E-01
	O14	O	-1.103000000000E-01	-1.103000000000E-01	3.384000000000E-01
	O15	O	1.103000000000E-01	-1.103000000000E-01	-3.384000000000E-01
	O16	O	-1.103000000000E-01	1.103000000000E-01	-3.384000000000E-01
	O17	O	3.384000000000E-01	1.103000000000E-01	1.103000000000E-01
	O18	O	1.103000000000E-01	3.384000000000E-01	1.103000000000E-01
	O19	O	-3.384000000000E-01	-1.103000000000E-01	1.103000000000E-01
	O20	O	-1.103000000000E-01	3.384000000000E-01	-1.103000000000E-01
	O21	O	3.384000000000E-01	-1.103000000000E-01	-1.103000000000E-01
	O22	O	-1.103000000000E-01	-3.384000000000E-01	1.103000000000E-01
	O23	O	-3.384000000000E-01	1.103000000000E-01	-1.103000000000E-01
	O24	O	1.103000000000E-01	-3.384000000000E-01	-1.103000000000E-01
	O25	O	-1.103000000000E-01	-1.103000000000E-01	-3.384000000000E-01
	O26	O	1.103000000000E-01	1.103000000000E-01	-3.384000000000E-01
	O27	O	1.103000000000E-01	-1.103000000000E-01	3.384000000000E-01
	O28	O	-1.103000000000E-01	1.103000000000E-01	3.384000000000E-01
	O29	O	-1.103000000000E-01	-3.384000000000E-01	-1.103000000000E-01
	O30	O	-3.384000000000E-01	-1.103000000000E-01	-1.103000000000E-01
	O31	O	1.103000000000E-01	3.384000000000E-01	-1.103000000000E-01
	O32	O	-3.384000000000E-01	1.103000000000E-01	1.103000000000E-01
	O33	O	1.103000000000E-01	-3.384000000000E-01	1.103000000000E-01
	O34	O	3.384000000000E-01	1.103000000000E-01	-1.103000000000E-01
	O35	O	-1.103000000000E-01	3.384000000000E-01	1.103000000000E-01
	O36	O	3.384000000000E-01	-1.103000000000E-01	1.103000000000E-01
	O37	O	0.000000000000E+00	2.967000000000E-01	2.967000000000E-01
	O38	O	0.000000000000E+00	-2.967000000000E-01	2.967000000000E-01
	O39	O	0.000000000000E+00	-2.967000000000E-01	-2.967000000000E-01
	O40	O	0.000000000000E+00	2.967000000000E-01	-2.967000000000E-01
	O41	O	2.967000000000E-01	0.000000000000E+00	2.967000000000E-01
	O42	O	2.967000000000E-01	2.967000000000E-01	0.000000000000E+00
	O43	O	-2.967000000000E-01	0.000000000000E+00	2.967000000000E-01
	O44	O	-2.967000000000E-01	2.967000000000E-01	0.000000000000E+00
	O45	O	2.967000000000E-01	0.000000000000E+00	-2.967000000000E-01
	O46	O	-2.967000000000E-01	-2.967000000000E-01	0.000000000000E+00
	O47	O	-2.967000000000E-01	0.000000000000E+00	-2.967000000000E-01
	O48	O	2.967000000000E-01	-2.967000000000E-01	0.000000000000E+00
	Si49	Si	0.000000000000E+00	1.823000000000E-01	3.684000000000E-01
	Si50	Si	0.000000000000E+00	-1.823000000000E-01	3.684000000000E-01
	Si51	Si	0.000000000000E+00	-1.823000000000E-01	-3.684000000000E-01
	Si52	Si	0.000000000000E+00	1.823000000000E-01	-3.684000000000E-01
	Si53	Si	3.684000000000E-01	0.000000000000E+00	1.823000000000E-01
	Si54	Si	1.823000000000E-01	3.684000000000E-01	0.000000000000E+00
	Si55	Si	-3.684000000000E-01	0.000000000000E+00	1.823000000000E-01
	Si56	Si	-1.823000000000E-01	3.684000000000E-01	0.000000000000E+00
	Si57	Si	3.684000000000E-01	0.000000000000E+00	-1.823000000000E-01
	Si58	Si	-1.823000000000E-01	-3.684000000000E-01	0.000000000000E+00
	Si59	Si	-3.684000000000E-01	0.000000000000E+00	-1.823000000000E-01
	Si60	Si	1.823000000000E-01	-3.684000000000E-01	0.000000000000E+00
	Si61	Si	-1.823000000000E-01	0.000000000000E+00	-3.684000000000E-01
	Si62	Si	1.823000000000E-01	0.000000000000E+00	-3.684000000000E-01
	Si63	Si	1.823000000000E-01	0.000000000000E+00	3.684000000000E-01
	Si64	Si	-1.823000000000E-01	0.000000000000E+00	3.684000000000E-01
	Si65	Si	0.000000000000E+00	-3.684000000000E-01	-1.823000000000E-01
	Si66	Si	-3.684000000000E-01	-1.823000000000E-01	0.000000000000E+00
	Si67	Si	0.000000000000E+00	3.684000000000E-01	-1.823000000000E-01
	Si68	Si	-3.684000000000E-01	1.823000000000E-01	0.000000000000E+00
	Si69	Si	0.000000000000E+00	-3.684000000000E-01	1.823000000000E-01
	Si70	Si	3.684000000000E-01	1.823000000000E-01	0.000000000000E+00
	Si71	Si	0.000000000000E+00	3.684000000000E-01	1.823000000000E-01
	Si72	Si	3.684000000000E-01	-1.823000000000E-01	0.000000000000E+00


data_ LTL
_chemical_name_common		'LTL'
_cell_length_a		18.12600000
_cell_length_b		18.12600000
_cell_length_c		7.56700000
_cell_angle_alpha		90.000000
_cell_angle_beta		90.000000
_cell_angle_gamma		120.000000
_space group_name_H-M_alt		'P 1'
_space_group_IT_number		1

loop_
	_atom_site_label
	_atom_site_type_symbol
	_atom_site_fract_x
	_atom_site_fract_y
	_atom_site_fract_z
	O1	O	2.644500000000E-01	-4.711000000000E-01	2.231000000000E-01
	O2	O	-2.644500000000E-01	4.711000000000E-01	2.231000000000E-01
	O3	O	4.711000000000E-01	-2.644500000000E-01	2.231000000000E-01
	O4	O	2.644500000000E-01	-2.644500000000E-01	2.231000000000E-01
	O5	O	-2.644500000000E-01	2.644500000000E-01	2.231000000000E-01
	O6	O	-4.711000000000E-01	2.644500000000E-01	2.231000000000E-01
	O7	O	-2.644500000000E-01	4.711000000000E-01	-2.231000000000E-01
	O8	O	-2.644500000000E-01	2.644500000000E-01	-2.231000000000E-01
	O9	O	-4.711000000000E-01	2.644500000000E-01	-2.231000000000E-01
	O10	O	4.711000000000E-01	-2.644500000000E-01	-2.231000000000E-01
	O11	O	2.644500000000E-01	-2.644500000000E-01	-2.231000000000E-01
	O12	O	2.644500000000E-01	-4.711000000000E-01	-2.231000000000E-01
	O13	O	1.099000000000E-01	4.162000000000E-01	3.263000000000E-01
	O14	O	-1.099000000000E-01	-4.162000000000E-01	3.263000000000E-01
	O15	O	-4.162000000000E-01	-3.063000000000E-01	3.263000000000E-01
	O16	O	3.063000000000E-01	-1.099000000000E-01	3.263000000000E-01
	O17	O	-3.063000000000E-01	1.099000000000E-01	3.263000000000E-01
	O18	O	4.162000000000E-01	3.063000000000E-01	3.263000000000E-01
	O19	O	-3.063000000000E-01	-4.162000000000E-01	-3.263000000000E-01
	O20	O	-1.099000000000E-01	3.063000000000E-01	-3.263000000000E-01
	O21	O	4.162000000000E-01	1.099000000000E-01	-3.263000000000E-01
	O22	O	-4.162000000000E-01	-1.099000000000E-01	-3.263000000000E-01
	O23	O	1.099000000000E-01	-3.063000000000E-01	-3.263000000000E-01
	O24	O	3.063000000000E-01	4.162000000000E-01	-3.263000000000E-01
	O25	O	-1.099000000000E-01	-4.162000000000E-01	-3.263000000000E-01
	O26	O	1.099000000000E-01	4.162000000000E-01	-3.263000000000E-01
	O27	O	4.162000000000E-01	3.063000000000E-01	-3.263000000000E-01
	O28	O	-3.063000000000E-01	1.099000000000E-01	-3.263000000000E-01
	O29	O	3.063000000000E-01	-1.099000000000E-01	-3.263000000000E-01
	O30	O	-4.162000000000E-01	-3.063000000000E-01	-3.263000000000E-01
	O31	O	3.063000000000E-01	4.162000000000E-01	3.263000000000E-01
	O32	O	1.099000000000E-01	-3.063000000000E-01	3.263000000000E-01
	O33	O	-4.162000000000E-01	-1.099000000000E-01	3.263000000000E-01
	O34	O	4.162000000000E-01	1.099000000000E-01	3.263000000000E-01
	O35	O	-1.099000000000E-01	3.063000000000E-01	3.263000000000E-01
	O36	O	-3.063000000000E-01	-4.162000000000E-01	3.263000000000E-01
	O37	O	4.258000000000E-01	-1.484000000000E-01	2.620000000000E-01
	O38	O	-4.258000000000E-01	1.484000000000E-01	2.620000000000E-01
	O39	O	1.484000000000E-01	-4.258000000000E-01	2.620000000000E-01
	O40	O	4.258000000000E-01	-4.258000000000E-01	2.620000000000E-01
	O41	O	-4.258000000000E-01	4.258000000000E-01	2.620000000000E-01
	O42	O	-1.484000000000E-01	4.258000000000E-01	2.620000000000E-01
	O43	O	-4.258000000000E-01	1.484000000000E-01	-2.620000000000E-01
	O44	O	-4.258000000000E-01	4.258000000000E-01	-2.620000000000E-01
	O45	O	-1.484000000000E-01	4.258000000000E-01	-2.620000000000E-01
	O46	O	1.484000000000E-01	-4.258000000000E-01	-2.620000000000E-01
	O47	O	4.258000000000E-01	-4.258000000000E-01	-2.620000000000E-01
	O48	O	4.258000000000E-01	-1.484000000000E-01	-2.620000000000E-01
	O49	O	1.365000000000E-01	4.736000000000E-01	0.000000000000E+00
	O50	O	-1.365000000000E-01	-4.736000000000E-01	0.000000000000E+00
	O51	O	-4.736000000000E-01	-3.371000000000E-01	0.000000000000E+00
	O52	O	3.371000000000E-01	-1.365000000000E-01	0.000000000000E+00
	O53	O	-3.371000000000E-01	1.365000000000E-01	0.000000000000E+00
	O54	O	4.736000000000E-01	3.371000000000E-01	0.000000000000E+00
	O55	O	-3.371000000000E-01	-4.736000000000E-01	0.000000000000E+00
	O56	O	-1.365000000000E-01	3.371000000000E-01	0.000000000000E+00
	O57	O	4.736000000000E-01	1.365000000000E-01	0.000000000000E+00
	O58	O	-4.736000000000E-01	-1.365000000000E-01	0.000000000000E+00
	O59	O	1.365000000000E-01	-3.371000000000E-01	0.000000000000E+00
	O60	O	3.371000000000E-01	4.736000000000E-01	0.000000000000E+00
	O61	O	2.797000000000E-01	5.551115123126E-17	-5.000000000000E-01
	O62	O	-2.797000000000E-01	-8.326672684689E-17	-5.000000000000E-01
	O63	O	-2.829030396680E-17	2.797000000000E-01	-5.000000000000E-01
	O64	O	-2.797000000000E-01	-2.797000000000E-01	-5.000000000000E-01
	O65	O	2.797000000000E-01	2.797000000000E-01	-5.000000000000E-01
	O66	O	2.829030396680E-17	-2.797000000000E-01	-5.000000000000E-01
	O67	O	1.628000000000E-01	3.256000000000E-01	-5.000000000000E-01
	O68	O	-1.628000000000E-01	-3.256000000000E-01	-5.000000000000E-01
	O69	O	-3.256000000000E-01	-1.628000000000E-01	-5.000000000000E-01
	O70	O	1.628000000000E-01	-1.628000000000E-01	-5.000000000000E-01
	O71	O	-1.628000000000E-01	1.628000000000E-01	-5.000000000000E-01
	O72	O	3.256000000000E-01	1.628000000000E-01	-5.000000000000E-01
	Si73	Si	1.648000000000E-01	4.982000000000E-01	2.030000000000E-01
	Si74	Si	-1.648000000000E-01	-4.982000000000E-01	2.030000000000E-01
	Si75	Si	-4.982000000000E-01	-3.334000000000E-01	2.030000000000E-01
	Si76	Si	3.334000000000E-01	-1.648000000000E-01	2.030000000000E-01
	Si77	Si	-3.334000000000E-01	1.648000000000E-01	2.030000000000E-01
	Si78	Si	4.982000000000E-01	3.334000000000E-01	2.030000000000E-01
	Si79	Si	-3.334000000000E-01	-4.982000000000E-01	-2.030000000000E-01
	Si80	Si	-1.648000000000E-01	3.334000000000E-01	-2.030000000000E-01
	Si81	Si	4.982000000000E-01	1.648000000000E-01	-2.030000000000E-01
	Si82	Si	-4.982000000000E-01	-1.648000000000E-01	-2.030000000000E-01
	Si83	Si	1.648000000000E-01	-3.334000000000E-01	-2.030000000000E-01
	Si84	Si	3.334000000000E-01	4.982000000000E-01	-2.030000000000E-01
	Si85	Si	-1.648000000000E-01	-4.982000000000E-01	-2.030000000000E-01
	Si86	Si	1.648000000000E-01	4.982000000000E-01	-2.030000000000E-01
	Si87	Si	4.982000000000E-01	3.334000000000E-01	-2.030000000000E-01
	Si88	Si	-3.334000000000E-01	1.648000000000E-01	-2.030000000000E-01
	Si89	Si	3.334000000000E-01	-1.648000000000E-01	-2.030000000000E-01
	Si90	Si	-4.982000000000E-01	-3.334000000000E-01	-2.030000000000E-01
	Si91	Si	3.334000000000E-01	4.982000000000E-01	2.030000000000E-01
	Si92	Si	1.648000000000E-01	-3.334000000000E-01	2.030000000000E-01
	Si93	Si	-4.982000000000E-01	-1.648000000000E-01	2.030000000000E-01
	Si94	Si	4.982000000000E-01	1.648000000000E-01	2.030000000000E-01
	Si95	Si	-1.648000000000E-01	3.334000000000E-01	2.030000000000E-01
	Si96	Si	-3.334000000000E-01	-4.982000000000E-01	2.030000000000E-01
	Si97	Si	9.590000000000E-02	3.594000000000E-01	-5.000000000000E-01
	Si98	Si	-9.590000000000E-02	-3.594000000000E-01	-5.000000000000E-01
	Si99	Si	-3.594000000000E-01	-2.635000000000E-01	-5.000000000000E-01
	Si100	Si	2.635000000000E-01	-9.590000000000E-02	-5.000000000000E-01
	Si101	Si	-2.635000000000E-01	9.590000000000E-02	-5.000000000000E-01
	Si102	Si	3.594000000000E-01	2.635000000000E-01	-5.000000000000E-01
	Si103	Si	-2.635000000000E-01	-3.594000000000E-01	-5.000000000000E-01
	Si104	Si	-9.590000000000E-02	2.635000000000E-01	-5.000000000000E-01
	Si105	Si	3.594000000000E-01	9.590000000000E-02	-5.000000000000E-01
	Si106	Si	-3.594000000000E-01	-9.590000000000E-02	-5.000000000000E-01
	Si107	Si	9.590000000000E-02	-2.635000000000E-01	-5.000000000000E-01
	Si108	Si	2.635000000000E-01	3.594000000000E-01	-5.000000000000E-01


data_ MAZ
_chemical_name_common		'MAZ'
_cell_length_a		18.10200000
_cell_length_b		18.10200000
_cell_length_c		7.61800000
_cell_angle_alpha		90.000000
_cell_angle_beta		90.000000
_cell_angle_gamma		120.000000
_space group_name_H-M_alt		'P 1'
_space_group_IT_number		1

loop_
	_atom_site_label
	_atom_site_type_symbol
	_atom_site_fract_x
	_atom_site_fract_y
	_atom_site_fract_z
	O1	O	2.801000000000E-01	-8.326672684689E-17	0.000000000000E+00
	O2	O	-2.801000000000E-01	8.326672684689E-17	-5.000000000000E-01
	O3	O	5.665562365510E-17	2.801000000000E-01	0.000000000000E+00
	O4	O	-2.801000000000E-01	-2.801000000000E-01	0.000000000000E+00
	O5	O	2.801000000000E-01	2.801000000000E-01	-5.000000000000E-01
	O6	O	-5.665562365510E-17	-2.801000000000E-01	-5.000000000000E-01
	O7	O	-2.801000000000E-01	8.326672684689E-17	0.000000000000E+00
	O8	O	2.801000000000E-01	-8.326672684689E-17	-5.000000000000E-01
	O9	O	-5.665562365510E-17	-2.801000000000E-01	0.000000000000E+00
	O10	O	2.801000000000E-01	2.801000000000E-01	0.000000000000E+00
	O11	O	-2.801000000000E-01	-2.801000000000E-01	-5.000000000000E-01
	O12	O	5.665562365510E-17	2.801000000000E-01	-5.000000000000E-01
	O13	O	1.193000000000E-01	4.365000000000E-01	-7.750000000000E-02
	O14	O	-1.193000000000E-01	-4.365000000000E-01	4.225000000000E-01
	O15	O	-4.365000000000E-01	-3.172000000000E-01	-7.750000000000E-02
	O16	O	3.172000000000E-01	-1.193000000000E-01	-7.750000000000E-02
	O17	O	-3.172000000000E-01	1.193000000000E-01	4.225000000000E-01
	O18	O	4.365000000000E-01	3.172000000000E-01	4.225000000000E-01
	O19	O	-3.172000000000E-01	-4.365000000000E-01	7.750000000000E-02
	O20	O	-1.193000000000E-01	3.172000000000E-01	7.750000000000E-02
	O21	O	4.365000000000E-01	1.193000000000E-01	7.750000000000E-02
	O22	O	-4.365000000000E-01	-1.193000000000E-01	-4.225000000000E-01
	O23	O	1.193000000000E-01	-3.172000000000E-01	-4.225000000000E-01
	O24	O	3.172000000000E-01	4.365000000000E-01	-4.225000000000E-01
	O25	O	-1.193000000000E-01	-4.365000000000E-01	7.750000000000E-02
	O26	O	1.193000000000E-01	4.365000000000E-01	-4.225000000000E-01
	O27	O	4.365000000000E-01	3.172000000000E-01	7.750000000000E-02
	O28	O	-3.172000000000E-01	1.193000000000E-01	7.750000000000E-02
	O29	O	3.172000000000E-01	-1.193000000000E-01	-4.225000000000E-01
	O30	O	-4.365000000000E-01	-3.172000000000E-01	-4.225000000000E-01
	O31	O	3.172000000000E-01	4.365000000000E-01	-7.750000000000E-02
	O32	O	1.193000000000E-01	-3.172000000000E-01	-7.750000000000E-02
	O33	O	-4.365000000000E-01	-1.193000000000E-01	-7.750000000000E-02
	O34	O	4.365000000000E-01	1.193000000000E-01	4.225000000000E-01
	O35	O	-1.193000000000E-01	3.172000000000E-01	4.225000000000E-01
	O36	O	-3.172000000000E-01	-4.365000000000E-01	4.225000000000E-01
	O37	O	1.619500000000E-01	3.239000000000E-01	2.270000000000E-02
	O38	O	-1.619500000000E-01	-3.239000000000E-01	-4.773000000000E-01
	O39	O	-3.239000000000E-01	-1.619500000000E-01	2.270000000000E-02
	O40	O	1.619500000000E-01	-1.619500000000E-01	2.270000000000E-02
	O41	O	-1.619500000000E-01	1.619500000000E-01	-4.773000000000E-01
	O42	O	3.239000000000E-01	1.619500000000E-01	-4.773000000000E-01
	O43	O	-1.619500000000E-01	-3.239000000000E-01	-2.270000000000E-02
	O44	O	-1.619500000000E-01	1.619500000000E-01	-2.270000000000E-02
	O45	O	3.239000000000E-01	1.619500000000E-01	-2.270000000000E-02
	O46	O	-3.239000000000E-01	-1.619500000000E-01	4.773000000000E-01
	O47	O	1.619500000000E-01	-1.619500000000E-01	4.773000000000E-01
	O48	O	1.619500000000E-01	3.239000000000E-01	4.773000000000E-01
	O49	O	9.590000000000E-02	3.839000000000E-01	2.500000000000E-01
	O50	O	-9.590000000000E-02	-3.839000000000E-01	-2.500000000000E-01
	O51	O	-3.839000000000E-01	-2.880000000000E-01	2.500000000000E-01
	O52	O	2.880000000000E-01	-9.590000000000E-02	2.500000000000E-01
	O53	O	-2.880000000000E-01	9.590000000000E-02	-2.500000000000E-01
	O54	O	3.839000000000E-01	2.880000000000E-01	-2.500000000000E-01
	O55	O	-2.880000000000E-01	-3.839000000000E-01	-2.500000000000E-01
	O56	O	-9.590000000000E-02	2.880000000000E-01	-2.500000000000E-01
	O57	O	3.839000000000E-01	9.590000000000E-02	-2.500000000000E-01
	O58	O	-3.839000000000E-01	-9.590000000000E-02	2.500000000000E-01
	O59	O	9.590000000000E-02	-2.880000000000E-01	2.500000000000E-01
	O60	O	2.880000000000E-01	3.839000000000E-01	2.500000000000E-01
	O61	O	-2.631500000000E-01	4.737000000000E-01	2.500000000000E-01
	O62	O	2.631500000000E-01	-4.737000000000E-01	-2.500000000000E-01
	O63	O	-4.737000000000E-01	2.631500000000E-01	2.500000000000E-01
	O64	O	-2.631500000000E-01	2.631500000000E-01	2.500000000000E-01
	O65	O	2.631500000000E-01	-2.631500000000E-01	-2.500000000000E-01
	O66	O	4.737000000000E-01	-2.631500000000E-01	-2.500000000000E-01
	O67	O	-4.263500000000E-01	1.473000000000E-01	2.500000000000E-01
	O68	O	4.263500000000E-01	-1.473000000000E-01	-2.500000000000E-01
	O69	O	-1.473000000000E-01	4.263500000000E-01	2.500000000000E-01
	O70	O	-4.263500000000E-01	4.263500000000E-01	2.500000000000E-01
	O71	O	4.263500000000E-01	-4.263500000000E-01	-2.500000000000E-01
	O72	O	1.473000000000E-01	-4.263500000000E-01	-2.500000000000E-01
	Si73	Si	9.430000000000E-02	3.561000000000E-01	4.870000000000E-02
	Si74	Si	-9.430000000000E-02	-3.561000000000E-01	-4.513000000000E-01
	Si75	Si	-3.561000000000E-01	-2.618000000000E-01	4.870000000000E-02
	Si76	Si	2.618000000000E-01	-9.430000000000E-02	4.870000000000E-02
	Si77	Si	-2.618000000000E-01	9.430000000000E-02	-4.513000000000E-01
	Si78	Si	3.561000000000E-01	2.618000000000E-01	-4.513000000000E-01
	Si79	Si	-2.618000000000E-01	-3.561000000000E-01	-4.870000000000E-02
	Si80	Si	-9.430000000000E-02	2.618000000000E-01	-4.870000000000E-02
	Si81	Si	3.561000000000E-01	9.430000000000E-02	-4.870000000000E-02
	Si82	Si	-3.561000000000E-01	-9.430000000000E-02	4.513000000000E-01
	Si83	Si	9.430000000000E-02	-2.618000000000E-01	4.513000000000E-01
	Si84	Si	2.618000000000E-01	3.561000000000E-01	4.513000000000E-01
	Si85	Si	-9.430000000000E-02	-3.561000000000E-01	-4.870000000000E-02
	Si86	Si	9.430000000000E-02	3.561000000000E-01	4.513000000000E-01
	Si87	Si	3.561000000000E-01	2.618000000000E-01	-4.870000000000E-02
	Si88	Si	-2.618000000000E-01	9.430000000000E-02	-4.870000000000E-02
	Si89	Si	2.618000000000E-01	-9.430000000000E-02	4.513000000000E-01
	Si90	Si	-3.561000000000E-01	-2.618000000000E-01	4.513000000000E-01
	Si91	Si	2.618000000000E-01	3.561000000000E-01	4.870000000000E-02
	Si92	Si	9.430000000000E-02	-2.618000000000E-01	4.870000000000E-02
	Si93	Si	-3.561000000000E-01	-9.430000000000E-02	4.870000000000E-02
	Si94	Si	3.561000000000E-01	9.430000000000E-02	-4.513000000000E-01
	Si95	Si	-9.430000000000E-02	2.618000000000E-01	-4.513000000000E-01
	Si96	Si	-2.618000000000E-01	-3.561000000000E-01	-4.513000000000E-01
	Si97	Si	4.934000000000E-01	1.624000000000E-01	2.500000000000E-01
	Si98	Si	-4.934000000000E-01	-1.624000000000E-01	-2.500000000000E-01
	Si99	Si	-1.624000000000E-01	3.310000000000E-01	2.500000000000E-01
	Si100	Si	-3.310000000000E-01	-4.934000000000E-01	2.500000000000E-01
	Si101	Si	3.310000000000E-01	4.934000000000E-01	-2.500000000000E-01
	Si102	Si	1.624000000000E-01	-3.310000000000E-01	-2.500000000000E-01
	Si103	Si	3.310000000000E-01	-1.624000000000E-01	-2.500000000000E-01
	Si104	Si	-4.934000000000E-01	-3.310000000000E-01	-2.500000000000E-01
	Si105	Si	1.624000000000E-01	4.934000000000E-01	-2.500000000000E-01
	Si106	Si	-1.624000000000E-01	-4.934000000000E-01	2.500000000000E-01
	Si107	Si	4.934000000000E-01	3.310000000000E-01	2.500000000000E-01
	Si108	Si	-3.310000000000E-01	1.624000000000E-01	2.500000000000E-01


data_ MEI
_chemical_name_common		'MEI'
_cell_length_a		13.11400000
_cell_length_b		13.11400000
_cell_length_c		15.56300000
_cell_angle_alpha		90.000000
_cell_angle_beta		90.000000
_cell_angle_gamma		120.000000
_space group_name_H-M_alt		'P 1'
_space_group_IT_number		1

loop_
	_atom_site_label
	_atom_site_type_symbol
	_atom_site_fract_x
	_atom_site_fract_y
	_atom_site_fract_z
	O1	O	-1.970000000000E-01	2.269000000000E-01	3.900000000000E-03
	O2	O	1.970000000000E-01	-2.269000000000E-01	-4.961000000000E-01
	O3	O	-2.269000000000E-01	-4.239000000000E-01	3.900000000000E-03
	O4	O	4.239000000000E-01	1.970000000000E-01	3.900000000000E-03
	O5	O	-4.239000000000E-01	-1.970000000000E-01	-4.961000000000E-01
	O6	O	2.269000000000E-01	4.239000000000E-01	-4.961000000000E-01
	O7	O	1.970000000000E-01	-2.269000000000E-01	-3.900000000000E-03
	O8	O	-1.970000000000E-01	2.269000000000E-01	4.961000000000E-01
	O9	O	2.269000000000E-01	4.239000000000E-01	-3.900000000000E-03
	O10	O	-4.239000000000E-01	-1.970000000000E-01	-3.900000000000E-03
	O11	O	4.239000000000E-01	1.970000000000E-01	4.961000000000E-01
	O12	O	-2.269000000000E-01	-4.239000000000E-01	4.961000000000E-01
	O13	O	-3.504000000000E-01	2.101000000000E-01	-1.119000000000E-01
	O14	O	3.504000000000E-01	-2.101000000000E-01	3.881000000000E-01
	O15	O	-2.101000000000E-01	4.395000000000E-01	-1.119000000000E-01
	O16	O	-4.395000000000E-01	3.504000000000E-01	-1.119000000000E-01
	O17	O	4.395000000000E-01	-3.504000000000E-01	3.881000000000E-01
	O18	O	2.101000000000E-01	-4.395000000000E-01	3.881000000000E-01
	O19	O	3.504000000000E-01	-2.101000000000E-01	1.119000000000E-01
	O20	O	-3.504000000000E-01	2.101000000000E-01	-3.881000000000E-01
	O21	O	2.101000000000E-01	-4.395000000000E-01	1.119000000000E-01
	O22	O	4.395000000000E-01	-3.504000000000E-01	1.119000000000E-01
	O23	O	-4.395000000000E-01	3.504000000000E-01	-3.881000000000E-01
	O24	O	-2.101000000000E-01	4.395000000000E-01	-3.881000000000E-01
	O25	O	-3.539000000000E-01	1.920000000000E-02	-5.560000000000E-02
	O26	O	3.539000000000E-01	-1.920000000000E-02	4.444000000000E-01
	O27	O	-1.920000000000E-02	-3.731000000000E-01	-5.560000000000E-02
	O28	O	3.731000000000E-01	3.539000000000E-01	-5.560000000000E-02
	O29	O	-3.731000000000E-01	-3.539000000000E-01	4.444000000000E-01
	O30	O	1.920000000000E-02	3.731000000000E-01	4.444000000000E-01
	O31	O	3.539000000000E-01	-1.920000000000E-02	5.560000000000E-02
	O32	O	-3.539000000000E-01	1.920000000000E-02	-4.444000000000E-01
	O33	O	1.920000000000E-02	3.731000000000E-01	5.560000000000E-02
	O34	O	-3.731000000000E-01	-3.539000000000E-01	5.560000000000E-02
	O35	O	3.731000000000E-01	3.539000000000E-01	-4.444000000000E-01
	O36	O	-1.920000000000E-02	-3.731000000000E-01	-4.444000000000E-01
	O37	O	-4.200000000000E-01	1.358000000000E-01	4.580000000000E-02
	O38	O	4.200000000000E-01	-1.358000000000E-01	-4.542000000000E-01
	O39	O	-1.358000000000E-01	4.442000000000E-01	4.580000000000E-02
	O40	O	-4.442000000000E-01	4.200000000000E-01	4.580000000000E-02
	O41	O	4.442000000000E-01	-4.200000000000E-01	-4.542000000000E-01
	O42	O	1.358000000000E-01	-4.442000000000E-01	-4.542000000000E-01
	O43	O	4.200000000000E-01	-1.358000000000E-01	-4.580000000000E-02
	O44	O	-4.200000000000E-01	1.358000000000E-01	4.542000000000E-01
	O45	O	1.358000000000E-01	-4.442000000000E-01	-4.580000000000E-02
	O46	O	4.442000000000E-01	-4.200000000000E-01	-4.580000000000E-02
	O47	O	-4.442000000000E-01	4.200000000000E-01	4.542000000000E-01
	O48	O	-1.358000000000E-01	4.442000000000E-01	4.542000000000E-01
	O49	O	4.498000000000E-01	1.563000000000E-01	1.655000000000E-01
	O50	O	-4.498000000000E-01	-1.563000000000E-01	-3.345000000000E-01
	O51	O	-1.563000000000E-01	2.935000000000E-01	1.655000000000E-01
	O52	O	-2.935000000000E-01	-4.498000000000E-01	1.655000000000E-01
	O53	O	2.935000000000E-01	4.498000000000E-01	-3.345000000000E-01
	O54	O	1.563000000000E-01	-2.935000000000E-01	-3.345000000000E-01
	O55	O	-4.498000000000E-01	-1.563000000000E-01	-1.655000000000E-01
	O56	O	4.498000000000E-01	1.563000000000E-01	3.345000000000E-01
	O57	O	1.563000000000E-01	-2.935000000000E-01	-1.655000000000E-01
	O58	O	2.935000000000E-01	4.498000000000E-01	-1.655000000000E-01
	O59	O	-2.935000000000E-01	-4.498000000000E-01	3.345000000000E-01
	O60	O	-1.563000000000E-01	2.935000000000E-01	3.345000000000E-01
	O61	O	-4.355000000000E-01	3.563000000000E-01	2.500000000000E-01
	O62	O	4.355000000000E-01	-3.563000000000E-01	-2.500000000000E-01
	O63	O	-3.563000000000E-01	2.082000000000E-01	2.500000000000E-01
	O64	O	-2.082000000000E-01	4.355000000000E-01	2.500000000000E-01
	O65	O	2.082000000000E-01	-4.355000000000E-01	-2.500000000000E-01
	O66	O	3.563000000000E-01	-2.082000000000E-01	-2.500000000000E-01
	O67	O	3.333333333333E-01	-3.333333333333E-01	2.500000000000E-01
	O68	O	-3.333333333333E-01	3.333333333333E-01	-2.500000000000E-01
	Si69	Si	-3.304000000000E-01	1.479000000000E-01	-2.950000000000E-02
	Si70	Si	3.304000000000E-01	-1.479000000000E-01	4.705000000000E-01
	Si71	Si	-1.479000000000E-01	-4.783000000000E-01	-2.950000000000E-02
	Si72	Si	4.783000000000E-01	3.304000000000E-01	-2.950000000000E-02
	Si73	Si	-4.783000000000E-01	-3.304000000000E-01	4.705000000000E-01
	Si74	Si	1.479000000000E-01	4.783000000000E-01	4.705000000000E-01
	Si75	Si	3.304000000000E-01	-1.479000000000E-01	2.950000000000E-02
	Si76	Si	-3.304000000000E-01	1.479000000000E-01	-4.705000000000E-01
	Si77	Si	1.479000000000E-01	4.783000000000E-01	2.950000000000E-02
	Si78	Si	-4.783000000000E-01	-3.304000000000E-01	2.950000000000E-02
	Si79	Si	4.783000000000E-01	3.304000000000E-01	-4.705000000000E-01
	Si80	Si	-1.479000000000E-01	-4.783000000000E-01	-4.705000000000E-01
	Si81	Si	4.519000000000E-01	1.174000000000E-01	6.770000000000E-02
	Si82	Si	-4.519000000000E-01	-1.174000000000E-01	-4.323000000000E-01
	Si83	Si	-1.174000000000E-01	3.345000000000E-01	6.770000000000E-02
	Si84	Si	-3.345000000000E-01	-4.519000000000E-01	6.770000000000E-02
	Si85	Si	3.345000000000E-01	4.519000000000E-01	-4.323000000000E-01
	Si86	Si	1.174000000000E-01	-3.345000000000E-01	-4.323000000000E-01
	Si87	Si	-4.519000000000E-01	-1.174000000000E-01	-6.770000000000E-02
	Si88	Si	4.519000000000E-01	1.174000000000E-01	4.323000000000E-01
	Si89	Si	1.174000000000E-01	-3.345000000000E-01	-6.770000000000E-02
	Si90	Si	3.345000000000E-01	4.519000000000E-01	-6.770000000000E-02
	Si91	Si	-3.345000000000E-01	-4.519000000000E-01	4.323000000000E-01
	Si92	Si	-1.174000000000E-01	3.345000000000E-01	4.323000000000E-01
	Si93	Si	-4.735000000000E-01	2.189000000000E-01	2.500000000000E-01
	Si94	Si	4.735000000000E-01	-2.189000000000E-01	-2.500000000000E-01
	Si95	Si	-2.189000000000E-01	3.076000000000E-01	2.500000000000E-01
	Si96	Si	-3.076000000000E-01	4.735000000000E-01	2.500000000000E-01
	Si97	Si	3.076000000000E-01	-4.735000000000E-01	-2.500000000000E-01
	Si98	Si	2.189000000000E-01	-3.076000000000E-01	-2.500000000000E-01
	Si99	Si	3.333333333333E-01	-3.333333333333E-01	3.533000000000E-01
	Si100	Si	-3.333333333333E-01	3.333333333333E-01	-1.467000000000E-01
	Si101	Si	-3.333333333333E-01	3.333333333333E-01	-3.533000000000E-01
	Si102	Si	3.333333333333E-01	-3.333333333333E-01	1.467000000000E-01


data_ MEL
_chemical_name_common		'MEL'
_cell_length_a		15.83422307
_cell_length_b		15.83422307
_cell_length_c		15.83422307
_cell_angle_alpha		100.406026
_cell_angle_beta		100.406026
_cell_angle_gamma		129.699031
_space group_name_H-M_alt		'P 1'
_space_group_IT_number		1

loop_
	_atom_site_label
	_atom_site_type_symbol
	_atom_site_fract_x
	_atom_site_fract_y
	_atom_site_fract_z
	O1	O	2.155000000000E-01	1.885000000000E-01	2.170000000000E-01
	O2	O	-2.850000000000E-02	-1.500000000000E-03	-2.170000000000E-01
	O3	O	-1.885000000000E-01	-2.155000000000E-01	-2.170000000000E-01
	O4	O	1.500000000000E-03	2.850000000000E-02	2.170000000000E-01
	O5	O	2.155000000000E-01	-1.500000000000E-03	2.700000000000E-02
	O6	O	-2.850000000000E-02	1.885000000000E-01	-2.700000000000E-02
	O7	O	1.500000000000E-03	-2.155000000000E-01	-2.700000000000E-02
	O8	O	-1.885000000000E-01	2.850000000000E-02	2.700000000000E-02
	O9	O	3.478000000000E-01	1.938000000000E-01	3.492000000000E-01
	O10	O	-1.554000000000E-01	-1.400000000000E-03	-3.492000000000E-01
	O11	O	-1.938000000000E-01	-3.478000000000E-01	-3.492000000000E-01
	O12	O	1.400000000000E-03	1.554000000000E-01	3.492000000000E-01
	O13	O	3.478000000000E-01	-1.400000000000E-03	1.540000000000E-01
	O14	O	-1.554000000000E-01	1.938000000000E-01	-1.540000000000E-01
	O15	O	1.400000000000E-03	-3.478000000000E-01	-1.540000000000E-01
	O16	O	-1.938000000000E-01	1.554000000000E-01	1.540000000000E-01
	O17	O	4.490000000000E-01	3.522000000000E-01	2.744000000000E-01
	O18	O	7.780000000000E-02	1.746000000000E-01	-2.744000000000E-01
	O19	O	-3.522000000000E-01	-4.490000000000E-01	-2.744000000000E-01
	O20	O	-1.746000000000E-01	-7.780000000000E-02	2.744000000000E-01
	O21	O	4.490000000000E-01	1.746000000000E-01	9.680000000000E-02
	O22	O	7.780000000000E-02	3.522000000000E-01	-9.680000000000E-02
	O23	O	-1.746000000000E-01	-4.490000000000E-01	-9.680000000000E-02
	O24	O	-3.522000000000E-01	-7.780000000000E-02	9.680000000000E-02
	O25	O	3.455000000000E-01	3.609000000000E-01	3.834000000000E-01
	O26	O	-2.250000000000E-02	-3.790000000000E-02	-3.834000000000E-01
	O27	O	-3.609000000000E-01	-3.455000000000E-01	-3.834000000000E-01
	O28	O	3.790000000000E-02	2.250000000000E-02	3.834000000000E-01
	O29	O	3.455000000000E-01	-3.790000000000E-02	-1.540000000000E-02
	O30	O	-2.250000000000E-02	3.609000000000E-01	1.540000000000E-02
	O31	O	3.790000000000E-02	-3.455000000000E-01	1.540000000000E-02
	O32	O	-3.609000000000E-01	2.250000000000E-02	-1.540000000000E-02
	O33	O	-3.484000000000E-01	-4.279000000000E-01	3.209000000000E-01
	O34	O	2.512000000000E-01	3.307000000000E-01	-3.209000000000E-01
	O35	O	4.279000000000E-01	3.484000000000E-01	-3.209000000000E-01
	O36	O	-3.307000000000E-01	-2.512000000000E-01	3.209000000000E-01
	O37	O	-3.484000000000E-01	3.307000000000E-01	7.950000000000E-02
	O38	O	2.512000000000E-01	-4.279000000000E-01	-7.950000000000E-02
	O39	O	-3.307000000000E-01	3.484000000000E-01	-7.950000000000E-02
	O40	O	4.279000000000E-01	-2.512000000000E-01	7.950000000000E-02
	O41	O	-3.551000000000E-01	4.388000000000E-01	4.027000000000E-01
	O42	O	3.610000000000E-02	2.422000000000E-01	-4.027000000000E-01
	O43	O	-4.388000000000E-01	3.551000000000E-01	-4.027000000000E-01
	O44	O	-2.422000000000E-01	-3.610000000000E-02	4.027000000000E-01
	O45	O	-3.551000000000E-01	2.422000000000E-01	2.061000000000E-01
	O46	O	3.610000000000E-02	4.388000000000E-01	-2.061000000000E-01
	O47	O	-2.422000000000E-01	3.551000000000E-01	-2.061000000000E-01
	O48	O	-4.388000000000E-01	-3.610000000000E-02	2.061000000000E-01
	O49	O	-3.814000000000E-01	3.919000000000E-01	2.267000000000E-01
	O50	O	1.652000000000E-01	3.919000000000E-01	-2.267000000000E-01
	O51	O	-3.919000000000E-01	3.814000000000E-01	-2.267000000000E-01
	O52	O	-3.919000000000E-01	-1.652000000000E-01	2.267000000000E-01
	O53	O	2.031000000000E-01	3.813000000000E-01	4.220000000000E-01
	O54	O	-4.070000000000E-02	-2.189000000000E-01	-4.220000000000E-01
	O55	O	-3.813000000000E-01	-2.031000000000E-01	-4.220000000000E-01
	O56	O	2.189000000000E-01	4.070000000000E-02	4.220000000000E-01
	O57	O	2.031000000000E-01	-2.189000000000E-01	-1.782000000000E-01
	O58	O	-4.070000000000E-02	3.813000000000E-01	1.782000000000E-01
	O59	O	2.189000000000E-01	-2.031000000000E-01	1.782000000000E-01
	O60	O	-3.813000000000E-01	4.070000000000E-02	-1.782000000000E-01
	O61	O	4.352000000000E-01	-4.352000000000E-01	5.000000000000E-01
	O62	O	6.480000000000E-02	-6.480000000000E-02	5.000000000000E-01
	O63	O	4.352000000000E-01	-6.480000000000E-02	-1.296000000000E-01
	O64	O	6.480000000000E-02	-4.352000000000E-01	1.296000000000E-01
	O65	O	3.363000000000E-01	3.822000000000E-01	-4.507000000000E-01
	O66	O	-1.671000000000E-01	-2.130000000000E-01	4.507000000000E-01
	O67	O	-3.822000000000E-01	-3.363000000000E-01	4.507000000000E-01
	O68	O	2.130000000000E-01	1.671000000000E-01	-4.507000000000E-01
	O69	O	3.363000000000E-01	-2.130000000000E-01	-4.590000000000E-02
	O70	O	-1.671000000000E-01	3.822000000000E-01	4.590000000000E-02
	O71	O	2.130000000000E-01	-3.363000000000E-01	4.590000000000E-02
	O72	O	-3.822000000000E-01	1.671000000000E-01	-4.590000000000E-02
	O73	O	1.450000000000E-02	3.097000000000E-01	2.952000000000E-01
	O74	O	1.450000000000E-02	-2.807000000000E-01	-2.952000000000E-01
	O75	O	-3.097000000000E-01	-1.450000000000E-02	-2.952000000000E-01
	O76	O	2.807000000000E-01	-1.450000000000E-02	2.952000000000E-01
	O77	O	2.090000000000E-02	3.148000000000E-01	4.633000000000E-01
	O78	O	-1.485000000000E-01	-4.424000000000E-01	-4.633000000000E-01
	O79	O	-3.148000000000E-01	-2.090000000000E-02	-4.633000000000E-01
	O80	O	4.424000000000E-01	1.485000000000E-01	4.633000000000E-01
	O81	O	2.090000000000E-02	-4.424000000000E-01	-2.939000000000E-01
	O82	O	-1.485000000000E-01	3.148000000000E-01	2.939000000000E-01
	O83	O	4.424000000000E-01	-2.090000000000E-02	2.939000000000E-01
	O84	O	-3.148000000000E-01	1.485000000000E-01	-2.939000000000E-01
	O85	O	-2.270000000000E-01	3.912000000000E-01	3.818000000000E-01
	O86	O	9.400000000000E-03	3.912000000000E-01	-3.818000000000E-01
	O87	O	-3.912000000000E-01	2.270000000000E-01	-3.818000000000E-01
	O88	O	-3.912000000000E-01	-9.400000000000E-03	3.818000000000E-01
	O89	O	-3.318000000000E-01	3.318000000000E-01	5.000000000000E-01
	O90	O	-1.682000000000E-01	1.682000000000E-01	5.000000000000E-01
	O91	O	-3.318000000000E-01	1.682000000000E-01	3.364000000000E-01
	O92	O	-1.682000000000E-01	3.318000000000E-01	-3.364000000000E-01
	O93	O	5.860000000000E-02	-2.900000000000E-02	8.760000000000E-02
	O94	O	-1.166000000000E-01	-2.900000000000E-02	-8.760000000000E-02
	O95	O	2.900000000000E-02	-5.860000000000E-02	-8.760000000000E-02
	O96	O	2.900000000000E-02	1.166000000000E-01	8.760000000000E-02
	Si97	Si	3.394000000000E-01	2.739000000000E-01	3.061000000000E-01
	Si98	Si	-3.220000000000E-02	3.330000000000E-02	-3.061000000000E-01
	Si99	Si	-2.739000000000E-01	-3.394000000000E-01	-3.061000000000E-01
	Si100	Si	-3.330000000000E-02	3.220000000000E-02	3.061000000000E-01
	Si101	Si	3.394000000000E-01	3.330000000000E-02	6.550000000000E-02
	Si102	Si	-3.220000000000E-02	2.739000000000E-01	-6.550000000000E-02
	Si103	Si	-3.330000000000E-02	-3.394000000000E-01	-6.550000000000E-02
	Si104	Si	-2.739000000000E-01	3.220000000000E-02	6.550000000000E-02
	Si105	Si	-4.090000000000E-01	4.386000000000E-01	3.060000000000E-01
	Si106	Si	1.326000000000E-01	2.850000000000E-01	-3.060000000000E-01
	Si107	Si	-4.386000000000E-01	4.090000000000E-01	-3.060000000000E-01
	Si108	Si	-2.850000000000E-01	-1.326000000000E-01	3.060000000000E-01
	Si109	Si	-4.090000000000E-01	2.850000000000E-01	1.524000000000E-01
	Si110	Si	1.326000000000E-01	4.386000000000E-01	-1.524000000000E-01
	Si111	Si	-2.850000000000E-01	4.090000000000E-01	-1.524000000000E-01
	Si112	Si	-4.386000000000E-01	-1.326000000000E-01	1.524000000000E-01
	Si113	Si	3.296000000000E-01	4.218000000000E-01	4.636000000000E-01
	Si114	Si	-4.180000000000E-02	-1.340000000000E-01	-4.636000000000E-01
	Si115	Si	-4.218000000000E-01	-3.296000000000E-01	-4.636000000000E-01
	Si116	Si	1.340000000000E-01	4.180000000000E-02	4.636000000000E-01
	Si117	Si	3.296000000000E-01	-1.340000000000E-01	-9.220000000000E-02
	Si118	Si	-4.180000000000E-02	4.218000000000E-01	9.220000000000E-02
	Si119	Si	1.340000000000E-01	-3.296000000000E-01	9.220000000000E-02
	Si120	Si	-4.218000000000E-01	4.180000000000E-02	-9.220000000000E-02
	Si121	Si	6.000000000000E-02	2.903000000000E-01	3.823000000000E-01
	Si122	Si	-9.200000000000E-02	-3.223000000000E-01	-3.823000000000E-01
	Si123	Si	-2.903000000000E-01	-6.000000000000E-02	-3.823000000000E-01
	Si124	Si	3.223000000000E-01	9.200000000000E-02	3.823000000000E-01
	Si125	Si	6.000000000000E-02	-3.223000000000E-01	-2.303000000000E-01
	Si126	Si	-9.200000000000E-02	2.903000000000E-01	2.303000000000E-01
	Si127	Si	3.223000000000E-01	-6.000000000000E-02	2.303000000000E-01
	Si128	Si	-2.903000000000E-01	9.200000000000E-02	-2.303000000000E-01
	Si129	Si	-2.657000000000E-01	4.300000000000E-01	4.555000000000E-01
	Si130	Si	-2.550000000000E-02	2.788000000000E-01	-4.555000000000E-01
	Si131	Si	-4.300000000000E-01	2.657000000000E-01	-4.555000000000E-01
	Si132	Si	-2.788000000000E-01	2.550000000000E-02	4.555000000000E-01
	Si133	Si	-2.657000000000E-01	2.788000000000E-01	3.043000000000E-01
	Si134	Si	-2.550000000000E-02	4.300000000000E-01	-3.043000000000E-01
	Si135	Si	-2.788000000000E-01	2.657000000000E-01	-3.043000000000E-01
	Si136	Si	-4.300000000000E-01	2.550000000000E-02	3.043000000000E-01
	Si137	Si	7.620000000000E-02	7.620000000000E-02	1.524000000000E-01
	Si138	Si	-7.620000000000E-02	-7.620000000000E-02	-1.524000000000E-01
	Si139	Si	7.620000000000E-02	-7.620000000000E-02	2.776922454519E-17
	Si140	Si	-7.620000000000E-02	7.620000000000E-02	-2.548501780815E-17
	Si141	Si	-3.070000000000E-01	-3.070000000000E-01	3.860000000000E-01
	Si142	Si	3.070000000000E-01	3.070000000000E-01	-3.860000000000E-01
	Si143	Si	-3.070000000000E-01	3.070000000000E-01	-4.726356304307E-19
	Si144	Si	3.070000000000E-01	-3.070000000000E-01	9.609462578589E-18


data_ MEP
_chemical_name_common		'MEP'
_cell_length_a		13.70500000
_cell_length_b		13.70500000
_cell_length_c		13.70500000
_cell_angle_alpha		90.000000
_cell_angle_beta		90.000000
_cell_angle_gamma		90.000000
_space group_name_H-M_alt		'P 1'
_space_group_IT_number		1

loop_
	_atom_site_label
	_atom_site_type_symbol
	_atom_site_fract_x
	_atom_site_fract_y
	_atom_site_fract_z
	O1	O	0.000000000000E+00	3.439000000000E-01	0.000000000000E+00
	O2	O	0.000000000000E+00	-3.439000000000E-01	0.000000000000E+00
	O3	O	0.000000000000E+00	0.000000000000E+00	3.439000000000E-01
	O4	O	3.439000000000E-01	0.000000000000E+00	0.000000000000E+00
	O5	O	-3.439000000000E-01	0.000000000000E+00	0.000000000000E+00
	O6	O	0.000000000000E+00	0.000000000000E+00	-3.439000000000E-01
	O7	O	1.561000000000E-01	5.000000000000E-01	5.000000000000E-01
	O8	O	-1.561000000000E-01	5.000000000000E-01	5.000000000000E-01
	O9	O	5.000000000000E-01	5.000000000000E-01	1.561000000000E-01
	O10	O	5.000000000000E-01	1.561000000000E-01	5.000000000000E-01
	O11	O	5.000000000000E-01	-1.561000000000E-01	5.000000000000E-01
	O12	O	5.000000000000E-01	5.000000000000E-01	-1.561000000000E-01
	O13	O	9.620000000000E-02	2.462000000000E-01	1.344000000000E-01
	O14	O	-9.620000000000E-02	-2.462000000000E-01	1.344000000000E-01
	O15	O	9.620000000000E-02	-2.462000000000E-01	-1.344000000000E-01
	O16	O	-9.620000000000E-02	2.462000000000E-01	-1.344000000000E-01
	O17	O	1.344000000000E-01	9.620000000000E-02	2.462000000000E-01
	O18	O	2.462000000000E-01	1.344000000000E-01	9.620000000000E-02
	O19	O	-1.344000000000E-01	-9.620000000000E-02	2.462000000000E-01
	O20	O	-2.462000000000E-01	1.344000000000E-01	-9.620000000000E-02
	O21	O	1.344000000000E-01	-9.620000000000E-02	-2.462000000000E-01
	O22	O	-2.462000000000E-01	-1.344000000000E-01	9.620000000000E-02
	O23	O	-1.344000000000E-01	9.620000000000E-02	-2.462000000000E-01
	O24	O	2.462000000000E-01	-1.344000000000E-01	-9.620000000000E-02
	O25	O	2.538000000000E-01	4.038000000000E-01	3.656000000000E-01
	O26	O	-2.538000000000E-01	-4.038000000000E-01	3.656000000000E-01
	O27	O	-2.538000000000E-01	4.038000000000E-01	-3.656000000000E-01
	O28	O	2.538000000000E-01	-4.038000000000E-01	-3.656000000000E-01
	O29	O	4.038000000000E-01	3.656000000000E-01	2.538000000000E-01
	O30	O	3.656000000000E-01	2.538000000000E-01	4.038000000000E-01
	O31	O	-4.038000000000E-01	-3.656000000000E-01	2.538000000000E-01
	O32	O	3.656000000000E-01	-2.538000000000E-01	-4.038000000000E-01
	O33	O	-4.038000000000E-01	3.656000000000E-01	-2.538000000000E-01
	O34	O	-3.656000000000E-01	-2.538000000000E-01	4.038000000000E-01
	O35	O	4.038000000000E-01	-3.656000000000E-01	-2.538000000000E-01
	O36	O	-3.656000000000E-01	2.538000000000E-01	-4.038000000000E-01
	O37	O	-9.620000000000E-02	-2.462000000000E-01	-1.344000000000E-01
	O38	O	9.620000000000E-02	2.462000000000E-01	-1.344000000000E-01
	O39	O	-9.620000000000E-02	2.462000000000E-01	1.344000000000E-01
	O40	O	9.620000000000E-02	-2.462000000000E-01	1.344000000000E-01
	O41	O	-1.344000000000E-01	-9.620000000000E-02	-2.462000000000E-01
	O42	O	-2.462000000000E-01	-1.344000000000E-01	-9.620000000000E-02
	O43	O	1.344000000000E-01	9.620000000000E-02	-2.462000000000E-01
	O44	O	2.462000000000E-01	-1.344000000000E-01	9.620000000000E-02
	O45	O	-1.344000000000E-01	9.620000000000E-02	2.462000000000E-01
	O46	O	2.462000000000E-01	1.344000000000E-01	-9.620000000000E-02
	O47	O	1.344000000000E-01	-9.620000000000E-02	2.462000000000E-01
	O48	O	-2.462000000000E-01	1.344000000000E-01	9.620000000000E-02
	O49	O	-2.538000000000E-01	-4.038000000000E-01	-3.656000000000E-01
	O50	O	2.538000000000E-01	4.038000000000E-01	-3.656000000000E-01
	O51	O	2.538000000000E-01	-4.038000000000E-01	3.656000000000E-01
	O52	O	-2.538000000000E-01	4.038000000000E-01	3.656000000000E-01
	O53	O	-4.038000000000E-01	-3.656000000000E-01	-2.538000000000E-01
	O54	O	-3.656000000000E-01	-2.538000000000E-01	-4.038000000000E-01
	O55	O	4.038000000000E-01	3.656000000000E-01	-2.538000000000E-01
	O56	O	-3.656000000000E-01	2.538000000000E-01	4.038000000000E-01
	O57	O	4.038000000000E-01	-3.656000000000E-01	2.538000000000E-01
	O58	O	3.656000000000E-01	2.538000000000E-01	-4.038000000000E-01
	O59	O	-4.038000000000E-01	3.656000000000E-01	2.538000000000E-01
	O60	O	3.656000000000E-01	-2.538000000000E-01	4.038000000000E-01
	O61	O	0.000000000000E+00	4.042000000000E-01	1.822000000000E-01
	O62	O	0.000000000000E+00	-4.042000000000E-01	1.822000000000E-01
	O63	O	0.000000000000E+00	-4.042000000000E-01	-1.822000000000E-01
	O64	O	0.000000000000E+00	4.042000000000E-01	-1.822000000000E-01
	O65	O	1.822000000000E-01	0.000000000000E+00	4.042000000000E-01
	O66	O	4.042000000000E-01	1.822000000000E-01	0.000000000000E+00
	O67	O	-1.822000000000E-01	0.000000000000E+00	4.042000000000E-01
	O68	O	-4.042000000000E-01	1.822000000000E-01	0.000000000000E+00
	O69	O	1.822000000000E-01	0.000000000000E+00	-4.042000000000E-01
	O70	O	-4.042000000000E-01	-1.822000000000E-01	0.000000000000E+00
	O71	O	-1.822000000000E-01	0.000000000000E+00	-4.042000000000E-01
	O72	O	4.042000000000E-01	-1.822000000000E-01	0.000000000000E+00
	O73	O	9.580000000000E-02	5.000000000000E-01	3.178000000000E-01
	O74	O	-9.580000000000E-02	5.000000000000E-01	3.178000000000E-01
	O75	O	-9.580000000000E-02	5.000000000000E-01	-3.178000000000E-01
	O76	O	9.580000000000E-02	5.000000000000E-01	-3.178000000000E-01
	O77	O	5.000000000000E-01	3.178000000000E-01	9.580000000000E-02
	O78	O	3.178000000000E-01	9.580000000000E-02	5.000000000000E-01
	O79	O	5.000000000000E-01	-3.178000000000E-01	9.580000000000E-02
	O80	O	3.178000000000E-01	-9.580000000000E-02	5.000000000000E-01
	O81	O	5.000000000000E-01	3.178000000000E-01	-9.580000000000E-02
	O82	O	-3.178000000000E-01	-9.580000000000E-02	5.000000000000E-01
	O83	O	5.000000000000E-01	-3.178000000000E-01	-9.580000000000E-02
	O84	O	-3.178000000000E-01	9.580000000000E-02	5.000000000000E-01
	O85	O	2.500000000000E-01	2.500000000000E-01	2.500000000000E-01
	O86	O	-2.500000000000E-01	-2.500000000000E-01	2.500000000000E-01
	O87	O	2.500000000000E-01	-2.500000000000E-01	-2.500000000000E-01
	O88	O	-2.500000000000E-01	2.500000000000E-01	-2.500000000000E-01
	O89	O	-2.500000000000E-01	-2.500000000000E-01	-2.500000000000E-01
	O90	O	2.500000000000E-01	2.500000000000E-01	-2.500000000000E-01
	O91	O	-2.500000000000E-01	2.500000000000E-01	2.500000000000E-01
	O92	O	2.500000000000E-01	-2.500000000000E-01	2.500000000000E-01
	Si93	Si	0.000000000000E+00	3.098000000000E-01	1.124000000000E-01
	Si94	Si	0.000000000000E+00	-3.098000000000E-01	1.124000000000E-01
	Si95	Si	0.000000000000E+00	-3.098000000000E-01	-1.124000000000E-01
	Si96	Si	0.000000000000E+00	3.098000000000E-01	-1.124000000000E-01
	Si97	Si	1.124000000000E-01	0.000000000000E+00	3.098000000000E-01
	Si98	Si	3.098000000000E-01	1.124000000000E-01	0.000000000000E+00
	Si99	Si	-1.124000000000E-01	0.000000000000E+00	3.098000000000E-01
	Si100	Si	-3.098000000000E-01	1.124000000000E-01	0.000000000000E+00
	Si101	Si	1.124000000000E-01	0.000000000000E+00	-3.098000000000E-01
	Si102	Si	-3.098000000000E-01	-1.124000000000E-01	0.000000000000E+00
	Si103	Si	-1.124000000000E-01	0.000000000000E+00	-3.098000000000E-01
	Si104	Si	3.098000000000E-01	-1.124000000000E-01	0.000000000000E+00
	Si105	Si	1.902000000000E-01	5.000000000000E-01	3.876000000000E-01
	Si106	Si	-1.902000000000E-01	5.000000000000E-01	3.876000000000E-01
	Si107	Si	-1.902000000000E-01	5.000000000000E-01	-3.876000000000E-01
	Si108	Si	1.902000000000E-01	5.000000000000E-01	-3.876000000000E-01
	Si109	Si	5.000000000000E-01	3.876000000000E-01	1.902000000000E-01
	Si110	Si	3.876000000000E-01	1.902000000000E-01	5.000000000000E-01
	Si111	Si	5.000000000000E-01	-3.876000000000E-01	1.902000000000E-01
	Si112	Si	3.876000000000E-01	-1.902000000000E-01	5.000000000000E-01
	Si113	Si	5.000000000000E-01	3.876000000000E-01	-1.902000000000E-01
	Si114	Si	-3.876000000000E-01	-1.902000000000E-01	5.000000000000E-01
	Si115	Si	5.000000000000E-01	-3.876000000000E-01	-1.902000000000E-01
	Si116	Si	-3.876000000000E-01	1.902000000000E-01	5.000000000000E-01
	Si117	Si	1.823000000000E-01	1.823000000000E-01	1.823000000000E-01
	Si118	Si	-1.823000000000E-01	-1.823000000000E-01	1.823000000000E-01
	Si119	Si	1.823000000000E-01	-1.823000000000E-01	-1.823000000000E-01
	Si120	Si	-1.823000000000E-01	1.823000000000E-01	-1.823000000000E-01
	Si121	Si	3.177000000000E-01	3.177000000000E-01	3.177000000000E-01
	Si122	Si	-3.177000000000E-01	-3.177000000000E-01	3.177000000000E-01
	Si123	Si	-3.177000000000E-01	3.177000000000E-01	-3.177000000000E-01
	Si124	Si	3.177000000000E-01	-3.177000000000E-01	-3.177000000000E-01
	Si125	Si	-1.823000000000E-01	-1.823000000000E-01	-1.823000000000E-01
	Si126	Si	1.823000000000E-01	1.823000000000E-01	-1.823000000000E-01
	Si127	Si	-1.823000000000E-01	1.823000000000E-01	1.823000000000E-01
	Si128	Si	1.823000000000E-01	-1.823000000000E-01	1.823000000000E-01
	Si129	Si	-3.177000000000E-01	-3.177000000000E-01	-3.177000000000E-01
	Si130	Si	3.177000000000E-01	3.177000000000E-01	-3.177000000000E-01
	Si131	Si	3.177000000000E-01	-3.177000000000E-01	3.177000000000E-01
	Si132	Si	-3.177000000000E-01	3.177000000000E-01	3.177000000000E-01
	Si133	Si	2.500000000000E-01	0.000000000000E+00	5.000000000000E-01
	Si134	Si	-2.500000000000E-01	0.000000000000E+00	5.000000000000E-01
	Si135	Si	5.000000000000E-01	2.500000000000E-01	0.000000000000E+00
	Si136	Si	0.000000000000E+00	5.000000000000E-01	2.500000000000E-01
	Si137	Si	5.000000000000E-01	-2.500000000000E-01	0.000000000000E+00
	Si138	Si	0.000000000000E+00	5.000000000000E-01	-2.500000000000E-01


data_ MER
_chemical_name_common		'MER'
_cell_length_a		22.17553616
_cell_length_b		11.08776808
_cell_length_c		11.08776808
_cell_angle_alpha		101.623928
_cell_angle_beta		101.623928
_cell_angle_gamma		126.657197
_space group_name_H-M_alt		'P 1'
_space_group_IT_number		1

loop_
	_atom_site_label
	_atom_site_type_symbol
	_atom_site_fract_x
	_atom_site_fract_y
	_atom_site_fract_z
	O1	O	1.783000000000E-01	3.566000000000E-01	3.452000000000E-01
	O2	O	5.700000000000E-03	1.140000000000E-02	-3.452000000000E-01
	O3	O	-1.783000000000E-01	-1.140000000000E-02	-3.605283161403E-18
	O4	O	-5.700000000000E-03	-3.566000000000E-01	-7.969460070544E-18
	O5	O	-1.783000000000E-01	-3.566000000000E-01	-3.452000000000E-01
	O6	O	-5.700000000000E-03	-1.140000000000E-02	3.452000000000E-01
	O7	O	5.700000000000E-03	3.566000000000E-01	7.969460070544E-18
	O8	O	1.783000000000E-01	1.140000000000E-02	3.605283161403E-18
	O9	O	1.488000000000E-01	1.223000000000E-01	4.199000000000E-01
	O10	O	-1.488000000000E-01	-1.223000000000E-01	-4.199000000000E-01
	O11	O	-1.488000000000E-01	1.223000000000E-01	-1.753000000000E-01
	O12	O	1.488000000000E-01	-1.223000000000E-01	1.753000000000E-01
	O13	O	-6.115000000000E-02	-2.976000000000E-01	-4.199000000000E-01
	O14	O	6.115000000000E-02	2.976000000000E-01	4.199000000000E-01
	O15	O	-6.115000000000E-02	2.976000000000E-01	1.753000000000E-01
	O16	O	6.115000000000E-02	-2.976000000000E-01	-1.753000000000E-01
	O17	O	2.161500000000E-01	1.866000000000E-01	2.457000000000E-01
	O18	O	-2.955000000000E-02	1.866000000000E-01	-2.457000000000E-01
	O19	O	-2.161500000000E-01	-1.866000000000E-01	-2.457000000000E-01
	O20	O	2.955000000000E-02	-1.866000000000E-01	2.457000000000E-01
	O21	O	-9.330000000000E-02	-4.323000000000E-01	-2.457000000000E-01
	O22	O	-9.330000000000E-02	5.910000000000E-02	2.457000000000E-01
	O23	O	9.330000000000E-02	4.323000000000E-01	2.457000000000E-01
	O24	O	9.330000000000E-02	-5.910000000000E-02	-2.457000000000E-01
	O25	O	-1.987500000000E-01	3.975000000000E-01	5.000000000000E-01
	O26	O	-5.125000000000E-02	1.025000000000E-01	5.000000000000E-01
	O27	O	-3.012500000000E-01	-1.025000000000E-01	-2.050000000000E-01
	O28	O	5.125000000000E-02	-3.975000000000E-01	2.050000000000E-01
	O29	O	-3.012500000000E-01	-3.975000000000E-01	5.000000000000E-01
	O30	O	5.125000000000E-02	-1.025000000000E-01	5.000000000000E-01
	O31	O	-1.987500000000E-01	1.025000000000E-01	2.050000000000E-01
	O32	O	-5.125000000000E-02	3.975000000000E-01	-2.050000000000E-01
	Si33	Si	2.110500000000E-01	2.656000000000E-01	3.777000000000E-01
	Si34	Si	-5.605000000000E-02	4.440000000000E-02	-3.777000000000E-01
	Si35	Si	-2.110500000000E-01	-4.440000000000E-02	-1.565000000000E-01
	Si36	Si	5.605000000000E-02	-2.656000000000E-01	1.565000000000E-01
	Si37	Si	-1.328000000000E-01	-4.221000000000E-01	-3.777000000000E-01
	Si38	Si	-2.220000000000E-02	1.121000000000E-01	3.777000000000E-01
	Si39	Si	2.220000000000E-02	4.221000000000E-01	1.565000000000E-01
	Si40	Si	1.328000000000E-01	-1.121000000000E-01	-1.565000000000E-01
	Si41	Si	-2.110500000000E-01	-2.656000000000E-01	-3.777000000000E-01
	Si42	Si	5.605000000000E-02	-4.440000000000E-02	3.777000000000E-01
	Si43	Si	2.110500000000E-01	4.440000000000E-02	1.565000000000E-01
	Si44	Si	-5.605000000000E-02	2.656000000000E-01	-1.565000000000E-01
	Si45	Si	1.328000000000E-01	4.221000000000E-01	3.777000000000E-01
	Si46	Si	2.220000000000E-02	-1.121000000000E-01	-3.777000000000E-01
	Si47	Si	-2.220000000000E-02	-4.221000000000E-01	-1.565000000000E-01
	Si48	Si	-1.328000000000E-01	1.121000000000E-01	1.565000000000E-01
	O49	O	-4.943000000000E-01	1.140000000000E-02	-3.452000000000E-01
	O50	O	3.012500000000E-01	3.975000000000E-01	5.000000000000E-01
	O51	O	4.388500000000E-01	-2.976000000000E-01	-4.199000000000E-01
	O52	O	4.487500000000E-01	1.025000000000E-01	5.000000000000E-01
	O53	O	-4.943000000000E-01	3.566000000000E-01	-2.104114482419E-17
	O54	O	1.987500000000E-01	-1.025000000000E-01	-2.050000000000E-01
	O55	O	-4.388500000000E-01	2.976000000000E-01	4.199000000000E-01
	O56	O	-4.487500000000E-01	-3.975000000000E-01	2.050000000000E-01
	O57	O	4.943000000000E-01	-3.566000000000E-01	-4.368218471053E-17
	O58	O	1.987500000000E-01	-3.975000000000E-01	5.000000000000E-01
	O59	O	4.388500000000E-01	2.976000000000E-01	1.753000000000E-01
	O60	O	-4.487500000000E-01	-1.025000000000E-01	5.000000000000E-01
	O61	O	-3.217000000000E-01	1.140000000000E-02	-1.383057850139E-17
	O62	O	3.012500000000E-01	1.025000000000E-01	2.050000000000E-01
	O63	O	-4.388500000000E-01	-2.976000000000E-01	-1.753000000000E-01
	O64	O	4.487500000000E-01	3.975000000000E-01	-2.050000000000E-01
	O65	O	-3.217000000000E-01	3.566000000000E-01	3.452000000000E-01
	Si66	Si	-2.889500000000E-01	2.656000000000E-01	3.777000000000E-01
	O67	O	-2.838500000000E-01	1.866000000000E-01	2.457000000000E-01
	Si68	Si	4.439500000000E-01	4.440000000000E-02	-3.777000000000E-01
	O69	O	-3.512000000000E-01	1.223000000000E-01	4.199000000000E-01
	Si70	Si	2.889500000000E-01	-4.440000000000E-02	-1.565000000000E-01
	O71	O	4.704500000000E-01	1.866000000000E-01	-2.457000000000E-01
	Si72	Si	-4.439500000000E-01	-2.656000000000E-01	1.565000000000E-01
	O73	O	3.217000000000E-01	-3.566000000000E-01	-3.452000000000E-01
	Si74	Si	3.672000000000E-01	-4.221000000000E-01	-3.777000000000E-01
	O75	O	2.838500000000E-01	-1.866000000000E-01	-2.457000000000E-01
	Si76	Si	4.778000000000E-01	1.121000000000E-01	3.777000000000E-01
	O77	O	3.512000000000E-01	-1.223000000000E-01	-4.199000000000E-01
	Si78	Si	-4.778000000000E-01	4.221000000000E-01	1.565000000000E-01
	O79	O	-4.704500000000E-01	-1.866000000000E-01	2.457000000000E-01
	Si80	Si	-3.672000000000E-01	-1.121000000000E-01	-1.565000000000E-01
	O81	O	3.217000000000E-01	-1.140000000000E-02	1.619314342987E-17
	Si82	Si	2.889500000000E-01	-2.656000000000E-01	-3.777000000000E-01
	O83	O	4.067000000000E-01	-4.323000000000E-01	-2.457000000000E-01
	Si84	Si	-4.439500000000E-01	-4.440000000000E-02	3.777000000000E-01
	O85	O	3.512000000000E-01	1.223000000000E-01	-1.753000000000E-01
	Si86	Si	-2.889500000000E-01	4.440000000000E-02	1.565000000000E-01
	O87	O	4.067000000000E-01	5.910000000000E-02	2.457000000000E-01
	Si88	Si	4.439500000000E-01	2.656000000000E-01	-1.565000000000E-01
	O89	O	4.943000000000E-01	-1.140000000000E-02	3.452000000000E-01
	Si90	Si	-3.672000000000E-01	4.221000000000E-01	3.777000000000E-01
	O91	O	-4.067000000000E-01	4.323000000000E-01	2.457000000000E-01
	Si92	Si	-4.778000000000E-01	-1.121000000000E-01	-3.777000000000E-01
	O93	O	-3.512000000000E-01	-1.223000000000E-01	1.753000000000E-01
	Si94	Si	4.778000000000E-01	-4.221000000000E-01	-1.565000000000E-01
	O95	O	-4.067000000000E-01	-5.910000000000E-02	-2.457000000000E-01
	Si96	Si	3.672000000000E-01	1.121000000000E-01	1.565000000000E-01


data_ MFS
_chemical_name_common		'MFS'
_cell_length_a		12.50519541
_cell_length_b		25.01039082
_cell_length_c		12.50519541
_cell_angle_alpha		144.893187
_cell_angle_beta		109.761388
_cell_angle_gamma		81.014464
_space group_name_H-M_alt		'P 1'
_space_group_IT_number		1

loop_
	_atom_site_label
	_atom_site_type_symbol
	_atom_site_fract_x
	_atom_site_fract_y
	_atom_site_fract_z
	O1	O	4.751000000000E-01	2.889500000000E-01	-4.512000000000E-01
	O2	O	2.910000000000E-02	-3.685000000000E-02	4.512000000000E-01
	O3	O	4.751000000000E-01	-3.685000000000E-02	-1.028000000000E-01
	O4	O	2.910000000000E-02	2.889500000000E-01	1.028000000000E-01
	O5	O	3.880000000000E-01	1.859000000000E-01	-4.826000000000E-01
	O6	O	-1.456000000000E-01	-6.470000000000E-02	4.826000000000E-01
	O7	O	3.880000000000E-01	-6.470000000000E-02	1.620000000000E-02
	O8	O	-1.456000000000E-01	1.859000000000E-01	-1.620000000000E-02
	O9	O	4.111000000000E-01	1.027000000000E-01	2.057000000000E-01
	O10	O	-3.000000000003E-04	1.027000000000E-01	-2.057000000000E-01
	O11	O	2.534000000000E-01	2.054000000000E-01	3.404000000000E-01
	O12	O	7.040000000000E-02	-4.350000000000E-02	-3.404000000000E-01
	O13	O	2.534000000000E-01	-4.350000000000E-02	-1.574000000000E-01
	O14	O	7.040000000000E-02	2.054000000000E-01	1.574000000000E-01
	O15	O	-3.754000000000E-01	1.421000000000E-01	-1.576000000000E-01
	O16	O	4.418000000000E-01	-1.089000000000E-01	1.576000000000E-01
	O17	O	-3.754000000000E-01	-1.089000000000E-01	3.404000000000E-01
	O18	O	4.418000000000E-01	1.421000000000E-01	-3.404000000000E-01
	O19	O	-2.532000000000E-01	8.105000000000E-02	-6.650000000000E-02
	O20	O	2.286000000000E-01	-9.335000000000E-02	6.650000000000E-02
	O21	O	-2.532000000000E-01	-9.335000000000E-02	-4.153000000000E-01
	O22	O	2.286000000000E-01	8.105000000000E-02	4.153000000000E-01
	O23	O	-2.560000000000E-01	-2.373500000000E-01	2.187000000000E-01
	O24	O	3.066000000000E-01	-2.373500000000E-01	-2.187000000000E-01
	O25	O	4.020000000000E-02	-2.555000000000E-02	9.130000000000E-02
	O26	O	-1.424000000000E-01	-2.555000000000E-02	-9.130000000000E-02
	O27	O	1.062000000000E-01	-6.605000000000E-02	2.383000000000E-01
	O28	O	-3.704000000000E-01	-6.605000000000E-02	-2.383000000000E-01
	O29	O	4.102000000000E-01	-9.045000000000E-02	-4.089000000000E-01
	O30	O	2.280000000000E-01	-9.045000000000E-02	4.089000000000E-01
	O31	O	9.530000000000E-02	-2.023500000000E-01	-5.000000000000E-01
	O32	O	4.630000000000E-02	1.104500000000E-01	1.746000000000E-01
	O33	O	4.630000000000E-02	-6.415000000000E-02	-1.746000000000E-01
	O34	O	4.657000000000E-01	-2.671500000000E-01	-2.220446049250E-16
	O35	O	4.172000000000E-01	4.570000000000E-02	-3.258000000000E-01
	O36	O	4.172000000000E-01	-1.285000000000E-01	3.258000000000E-01
	Si37	Si	3.816000000000E-01	1.955500000000E-01	4.031000000000E-01
	Si38	Si	-1.200000000000E-02	-1.075000000000E-02	-4.031000000000E-01
	Si39	Si	3.816000000000E-01	-1.075000000000E-02	-9.500000000000E-03
	Si40	Si	-1.200000000000E-02	1.955500000000E-01	9.500000000000E-03
	Si41	Si	-2.575000000000E-01	1.679000000000E-01	-5.900000000000E-03
	Si42	Si	3.417000000000E-01	-1.258000000000E-01	5.900000000000E-03
	Si43	Si	-2.575000000000E-01	-1.258000000000E-01	4.067000000000E-01
	Si44	Si	3.417000000000E-01	1.679000000000E-01	-4.067000000000E-01
	Si45	Si	1.514000000000E-01	-2.590000000000E-02	2.032000000000E-01
	Si46	Si	-2.550000000000E-01	-2.590000000000E-02	-2.032000000000E-01
	Si47	Si	4.970000000000E-01	-1.011500000000E-01	-3.007000000000E-01
	Si48	Si	9.840000000000E-02	-1.011500000000E-01	3.007000000000E-01
	Si49	Si	1.166000000000E-01	2.050500000000E-01	2.935000000000E-01
	Si50	Si	1.166000000000E-01	-8.845000000000E-02	-2.935000000000E-01
	Si51	Si	4.873000000000E-01	1.404500000000E-01	-2.064000000000E-01
	Si52	Si	4.873000000000E-01	-1.531500000000E-01	2.064000000000E-01
	Si53	Si	3.683000000000E-01	-6.585000000000E-02	5.000000000000E-01
	Si54	Si	-2.200000000000E-03	-1.100000000000E-03	2.067310801807E-19
	O55	O	7.040000000000E-02	-2.946000000000E-01	1.574000000000E-01
	O56	O	-3.704000000000E-01	4.339500000000E-01	-2.383000000000E-01
	O57	O	2.910000000000E-02	-2.110500000000E-01	1.028000000000E-01
	O58	O	4.102000000000E-01	4.095500000000E-01	-4.089000000000E-01
	O59	O	-3.754000000000E-01	-3.579000000000E-01	-1.576000000000E-01
	O60	O	2.280000000000E-01	4.095500000000E-01	4.089000000000E-01
	O61	O	-1.456000000000E-01	-3.141000000000E-01	-1.620000000000E-02
	O62	O	9.530000000000E-02	2.976500000000E-01	5.000000000000E-01
	O63	O	4.418000000000E-01	3.911000000000E-01	1.576000000000E-01
	O64	O	4.630000000000E-02	-3.895500000000E-01	1.746000000000E-01
	O65	O	4.751000000000E-01	-2.110500000000E-01	-4.512000000000E-01
	O66	O	4.630000000000E-02	4.358500000000E-01	-1.746000000000E-01
	O67	O	-3.754000000000E-01	3.911000000000E-01	3.404000000000E-01
	O68	O	4.657000000000E-01	2.328500000000E-01	-2.597392831791E-16
	O69	O	4.111000000000E-01	-3.973000000000E-01	2.057000000000E-01
	O70	O	4.172000000000E-01	-4.543000000000E-01	-3.258000000000E-01
	O71	O	4.418000000000E-01	-3.579000000000E-01	-3.404000000000E-01
	O72	O	4.172000000000E-01	3.715000000000E-01	3.258000000000E-01
	O73	O	3.880000000000E-01	-3.141000000000E-01	-4.826000000000E-01
	Si74	Si	3.816000000000E-01	-3.044500000000E-01	4.031000000000E-01
	O75	O	-2.532000000000E-01	-4.189500000000E-01	-6.650000000000E-02
	Si76	Si	-1.200000000000E-02	4.892500000000E-01	-4.031000000000E-01
	O77	O	-3.000000000001E-04	-3.973000000000E-01	-2.057000000000E-01
	Si78	Si	3.816000000000E-01	4.892500000000E-01	-9.500000000000E-03
	O79	O	2.286000000000E-01	4.066500000000E-01	6.650000000000E-02
	Si80	Si	-1.200000000000E-02	-3.044500000000E-01	9.500000000000E-03
	O81	O	4.751000000000E-01	4.631500000000E-01	-1.028000000000E-01
	Si82	Si	-2.575000000000E-01	-3.321000000000E-01	-5.900000000000E-03
	O83	O	-2.532000000000E-01	4.066500000000E-01	-4.153000000000E-01
	Si84	Si	3.417000000000E-01	3.742000000000E-01	5.900000000000E-03
	O85	O	2.534000000000E-01	-2.946000000000E-01	3.404000000000E-01
	Si86	Si	-2.575000000000E-01	3.742000000000E-01	4.067000000000E-01
	O87	O	2.286000000000E-01	-4.189500000000E-01	4.153000000000E-01
	Si88	Si	3.417000000000E-01	-3.321000000000E-01	-4.067000000000E-01
	O89	O	-1.456000000000E-01	4.353000000000E-01	4.826000000000E-01
	Si90	Si	1.514000000000E-01	4.741000000000E-01	2.032000000000E-01
	O91	O	-2.560000000000E-01	2.626500000000E-01	2.187000000000E-01
	Si92	Si	-2.550000000000E-01	4.741000000000E-01	-2.032000000000E-01
	O93	O	7.040000000000E-02	4.565000000000E-01	-3.404000000000E-01
	Si94	Si	4.970000000000E-01	3.988500000000E-01	-3.007000000000E-01
	O95	O	3.066000000000E-01	2.626500000000E-01	-2.187000000000E-01
	Si96	Si	9.840000000000E-02	3.988500000000E-01	3.007000000000E-01
	O97	O	2.910000000000E-02	4.631500000000E-01	4.512000000000E-01
	Si98	Si	1.166000000000E-01	-2.949500000000E-01	2.935000000000E-01
	O99	O	4.020000000000E-02	4.744500000000E-01	9.130000000000E-02
	Si100	Si	1.166000000000E-01	4.115500000000E-01	-2.935000000000E-01
	O101	O	2.534000000000E-01	4.565000000000E-01	-1.574000000000E-01
	Si102	Si	4.873000000000E-01	-3.595500000000E-01	-2.064000000000E-01
	O103	O	-1.424000000000E-01	4.744500000000E-01	-9.130000000000E-02
	Si104	Si	4.873000000000E-01	3.468500000000E-01	2.064000000000E-01
	O105	O	3.880000000000E-01	4.353000000000E-01	1.620000000000E-02
	Si106	Si	3.683000000000E-01	4.341500000000E-01	5.000000000000E-01
	O107	O	1.062000000000E-01	4.339500000000E-01	2.383000000000E-01
	Si108	Si	-2.200000000000E-03	4.989000000000E-01	-3.369233887784E-16


data_ MOR
_chemical_name_common		'MOR'
_cell_length_a		13.73796466
_cell_length_b		13.73796466
_cell_length_c		7.54200000
_cell_angle_alpha		90.000000
_cell_angle_beta		90.000000
_cell_angle_gamma		83.278162
_space group_name_H-M_alt		'P 1'
_space_group_IT_number		1

loop_
	_atom_site_label
	_atom_site_type_symbol
	_atom_site_fract_x
	_atom_site_fract_y
	_atom_site_fract_z
	O1	O	2.811000000000E-01	-2.811000000000E-01	0.000000000000E+00
	O2	O	-2.811000000000E-01	2.811000000000E-01	-5.000000000000E-01
	O3	O	-2.811000000000E-01	2.811000000000E-01	0.000000000000E+00
	O4	O	2.811000000000E-01	-2.811000000000E-01	-5.000000000000E-01
	O5	O	4.063000000000E-01	-2.473000000000E-01	2.500000000000E-01
	O6	O	-4.063000000000E-01	2.473000000000E-01	-2.500000000000E-01
	O7	O	2.473000000000E-01	-4.063000000000E-01	-2.500000000000E-01
	O8	O	-2.473000000000E-01	4.063000000000E-01	2.500000000000E-01
	O9	O	4.681000000000E-01	-2.833000000000E-01	-7.570000000000E-02
	O10	O	-4.681000000000E-01	2.833000000000E-01	4.243000000000E-01
	O11	O	2.833000000000E-01	-4.681000000000E-01	7.570000000000E-02
	O12	O	-2.833000000000E-01	4.681000000000E-01	-4.243000000000E-01
	O13	O	-4.681000000000E-01	2.833000000000E-01	7.570000000000E-02
	O14	O	4.681000000000E-01	-2.833000000000E-01	-4.243000000000E-01
	O15	O	-2.833000000000E-01	4.681000000000E-01	-7.570000000000E-02
	O16	O	2.833000000000E-01	-4.681000000000E-01	4.243000000000E-01
	O17	O	3.614000000000E-01	-1.168000000000E-01	-8.000000000000E-04
	O18	O	-3.614000000000E-01	1.168000000000E-01	4.992000000000E-01
	O19	O	1.168000000000E-01	-3.614000000000E-01	8.000000000000E-04
	O20	O	-1.168000000000E-01	3.614000000000E-01	-4.992000000000E-01
	O21	O	-3.614000000000E-01	1.168000000000E-01	8.000000000000E-04
	O22	O	3.614000000000E-01	-1.168000000000E-01	-4.992000000000E-01
	O23	O	-1.168000000000E-01	3.614000000000E-01	-8.000000000000E-04
	O24	O	1.168000000000E-01	-3.614000000000E-01	4.992000000000E-01
	O25	O	-3.658000000000E-01	-1.640000000000E-02	2.500000000000E-01
	O26	O	3.658000000000E-01	1.640000000000E-02	-2.500000000000E-01
	O27	O	1.640000000000E-02	3.658000000000E-01	-2.500000000000E-01
	O28	O	-1.640000000000E-02	-3.658000000000E-01	2.500000000000E-01
	O29	O	-5.000000000000E-01	-1.221171528403E-17	0.000000000000E+00
	O30	O	-5.000000000000E-01	-1.221171528403E-17	-5.000000000000E-01
	O31	O	-1.221171528403E-17	-5.000000000000E-01	0.000000000000E+00
	O32	O	-1.221171528403E-17	-5.000000000000E-01	-5.000000000000E-01
	O33	O	-3.185000000000E-01	-6.990000000000E-02	-7.580000000000E-02
	O34	O	3.185000000000E-01	6.990000000000E-02	4.242000000000E-01
	O35	O	6.990000000000E-02	3.185000000000E-01	7.580000000000E-02
	O36	O	-6.990000000000E-02	-3.185000000000E-01	-4.242000000000E-01
	O37	O	3.185000000000E-01	6.990000000000E-02	7.580000000000E-02
	O38	O	-3.185000000000E-01	-6.990000000000E-02	-4.242000000000E-01
	O39	O	-6.990000000000E-02	-3.185000000000E-01	-7.580000000000E-02
	O40	O	6.990000000000E-02	3.185000000000E-01	4.242000000000E-01
	O41	O	4.005000000000E-01	4.005000000000E-01	2.500000000000E-01
	O42	O	-4.005000000000E-01	-4.005000000000E-01	-2.500000000000E-01
	O43	O	3.915000000000E-01	2.103000000000E-01	2.500000000000E-01
	O44	O	-3.915000000000E-01	-2.103000000000E-01	-2.500000000000E-01
	O45	O	-2.103000000000E-01	-3.915000000000E-01	-2.500000000000E-01
	O46	O	2.103000000000E-01	3.915000000000E-01	2.500000000000E-01
	O47	O	2.013000000000E-01	2.013000000000E-01	2.500000000000E-01
	O48	O	-2.013000000000E-01	-2.013000000000E-01	-2.500000000000E-01
	Si49	Si	3.793000000000E-01	-2.321000000000E-01	4.350000000000E-02
	Si50	Si	-3.793000000000E-01	2.321000000000E-01	-4.565000000000E-01
	Si51	Si	2.321000000000E-01	-3.793000000000E-01	-4.350000000000E-02
	Si52	Si	-2.321000000000E-01	3.793000000000E-01	4.565000000000E-01
	Si53	Si	-3.793000000000E-01	2.321000000000E-01	-4.350000000000E-02
	Si54	Si	3.793000000000E-01	-2.321000000000E-01	4.565000000000E-01
	Si55	Si	-2.321000000000E-01	3.793000000000E-01	4.350000000000E-02
	Si56	Si	2.321000000000E-01	-3.793000000000E-01	-4.565000000000E-01
	Si57	Si	-3.866000000000E-01	7.800000000000E-03	4.370000000000E-02
	Si58	Si	3.866000000000E-01	-7.800000000000E-03	-4.563000000000E-01
	Si59	Si	-7.800000000000E-03	3.866000000000E-01	-4.370000000000E-02
	Si60	Si	7.800000000000E-03	-3.866000000000E-01	4.563000000000E-01
	Si61	Si	3.866000000000E-01	-7.800000000000E-03	-4.370000000000E-02
	Si62	Si	-3.866000000000E-01	7.800000000000E-03	4.563000000000E-01
	Si63	Si	7.800000000000E-03	-3.866000000000E-01	4.370000000000E-02
	Si64	Si	-7.800000000000E-03	3.866000000000E-01	-4.563000000000E-01
	Si65	Si	4.639000000000E-01	2.943000000000E-01	2.500000000000E-01
	Si66	Si	-4.639000000000E-01	-2.943000000000E-01	-2.500000000000E-01
	Si67	Si	-2.943000000000E-01	-4.639000000000E-01	-2.500000000000E-01
	Si68	Si	2.943000000000E-01	4.639000000000E-01	2.500000000000E-01
	Si69	Si	3.075000000000E-01	1.379000000000E-01	2.500000000000E-01
	Si70	Si	-3.075000000000E-01	-1.379000000000E-01	-2.500000000000E-01
	Si71	Si	-1.379000000000E-01	-3.075000000000E-01	-2.500000000000E-01
	Si72	Si	1.379000000000E-01	3.075000000000E-01	2.500000000000E-01


data_ MRT
_chemical_name_common		'MRT'
_cell_length_a		13.62070000
_cell_length_b		7.54660000
_cell_length_c		13.62190000
_cell_angle_alpha		90.000000
_cell_angle_beta		90.000000
_cell_angle_gamma		90.000000
_space group_name_H-M_alt		'P 1'
_space_group_IT_number		1

loop_
	_atom_site_label
	_atom_site_type_symbol
	_atom_site_fract_x
	_atom_site_fract_y
	_atom_site_fract_z
	Si1	Si	-3.624000000000E-01	2.960300000000E-01	2.245600000000E-01
	Si2	Si	-1.376000000000E-01	-2.960300000000E-01	2.245600000000E-01
	Si3	Si	1.376000000000E-01	-2.960300000000E-01	-2.245600000000E-01
	Si4	Si	3.624000000000E-01	2.960300000000E-01	-2.245600000000E-01
	Si5	Si	3.624000000000E-01	-2.960300000000E-01	-2.245600000000E-01
	Si6	Si	1.376000000000E-01	2.960300000000E-01	-2.245600000000E-01
	Si7	Si	-1.376000000000E-01	2.960300000000E-01	2.245600000000E-01
	Si8	Si	-3.624000000000E-01	-2.960300000000E-01	2.245600000000E-01
	Si9	Si	-2.127000000000E-02	2.956000000000E-01	-3.888700000000E-01
	Si10	Si	-4.787300000000E-01	-2.956000000000E-01	-3.888700000000E-01
	Si11	Si	4.787300000000E-01	-2.956000000000E-01	3.888700000000E-01
	Si12	Si	2.127000000000E-02	2.956000000000E-01	3.888700000000E-01
	Si13	Si	2.127000000000E-02	-2.956000000000E-01	3.888700000000E-01
	Si14	Si	4.787300000000E-01	2.956000000000E-01	3.888700000000E-01
	Si15	Si	-4.787300000000E-01	2.956000000000E-01	-3.888700000000E-01
	Si16	Si	-2.127000000000E-02	-2.956000000000E-01	-3.888700000000E-01
	Si17	Si	-3.655700000000E-01	0.000000000000E+00	-2.800200000000E-01
	Si18	Si	-1.344300000000E-01	0.000000000000E+00	-2.800200000000E-01
	Si19	Si	1.344300000000E-01	0.000000000000E+00	2.800200000000E-01
	Si20	Si	3.655700000000E-01	0.000000000000E+00	2.800200000000E-01
	Si21	Si	-4.744100000000E-01	0.000000000000E+00	1.151200000000E-01
	Si22	Si	-2.559000000000E-02	0.000000000000E+00	1.151200000000E-01
	Si23	Si	2.559000000000E-02	0.000000000000E+00	-1.151200000000E-01
	Si24	Si	4.744100000000E-01	0.000000000000E+00	-1.151200000000E-01
	O25	O	-2.500000000000E-01	2.369900000000E-01	2.409600000000E-01
	O26	O	-2.500000000000E-01	-2.369900000000E-01	2.409600000000E-01
	O27	O	2.500000000000E-01	-2.369900000000E-01	-2.409600000000E-01
	O28	O	2.500000000000E-01	2.369900000000E-01	-2.409600000000E-01
	O29	O	-4.222200000000E-01	2.731900000000E-01	3.256400000000E-01
	O30	O	-7.778000000000E-02	-2.731900000000E-01	3.256400000000E-01
	O31	O	7.778000000000E-02	-2.731900000000E-01	-3.256400000000E-01
	O32	O	4.222200000000E-01	2.731900000000E-01	-3.256400000000E-01
	O33	O	4.222200000000E-01	-2.731900000000E-01	-3.256400000000E-01
	O34	O	7.778000000000E-02	2.731900000000E-01	-3.256400000000E-01
	O35	O	-7.778000000000E-02	2.731900000000E-01	3.256400000000E-01
	O36	O	-4.222200000000E-01	-2.731900000000E-01	3.256400000000E-01
	O37	O	-4.111800000000E-01	1.741400000000E-01	1.407700000000E-01
	O38	O	-8.882000000000E-02	-1.741400000000E-01	1.407700000000E-01
	O39	O	8.882000000000E-02	-1.741400000000E-01	-1.407700000000E-01
	O40	O	4.111800000000E-01	1.741400000000E-01	-1.407700000000E-01
	O41	O	4.111800000000E-01	-1.741400000000E-01	-1.407700000000E-01
	O42	O	8.882000000000E-02	1.741400000000E-01	-1.407700000000E-01
	O43	O	-8.882000000000E-02	1.741400000000E-01	1.407700000000E-01
	O44	O	-4.111800000000E-01	-1.741400000000E-01	1.407700000000E-01
	O45	O	-3.658600000000E-01	-5.000000000000E-01	1.901900000000E-01
	O46	O	-1.341400000000E-01	-5.000000000000E-01	1.901900000000E-01
	O47	O	1.341400000000E-01	-5.000000000000E-01	-1.901900000000E-01
	O48	O	3.658600000000E-01	-5.000000000000E-01	-1.901900000000E-01
	O49	O	0.000000000000E+00	2.339400000000E-01	-5.000000000000E-01
	O50	O	-5.000000000000E-01	-2.339400000000E-01	-5.000000000000E-01
	O51	O	0.000000000000E+00	-2.339400000000E-01	-5.000000000000E-01
	O52	O	-5.000000000000E-01	2.339400000000E-01	-5.000000000000E-01
	O53	O	-1.066000000000E-01	1.742000000000E-01	-3.423300000000E-01
	O54	O	-3.934000000000E-01	-1.742000000000E-01	-3.423300000000E-01
	O55	O	3.934000000000E-01	-1.742000000000E-01	3.423300000000E-01
	O56	O	1.066000000000E-01	1.742000000000E-01	3.423300000000E-01
	O57	O	1.066000000000E-01	-1.742000000000E-01	3.423300000000E-01
	O58	O	3.934000000000E-01	1.742000000000E-01	3.423300000000E-01
	O59	O	-3.934000000000E-01	1.742000000000E-01	-3.423300000000E-01
	O60	O	-1.066000000000E-01	-1.742000000000E-01	-3.423300000000E-01
	O61	O	-5.506000000000E-02	-5.000000000000E-01	-3.879400000000E-01
	O62	O	-4.449400000000E-01	-5.000000000000E-01	-3.879400000000E-01
	O63	O	4.449400000000E-01	-5.000000000000E-01	3.879400000000E-01
	O64	O	5.506000000000E-02	-5.000000000000E-01	3.879400000000E-01
	O65	O	-4.257700000000E-01	0.000000000000E+00	-1.783200000000E-01
	O66	O	-7.423000000000E-02	0.000000000000E+00	-1.783200000000E-01
	O67	O	7.423000000000E-02	0.000000000000E+00	1.783200000000E-01
	O68	O	4.257700000000E-01	0.000000000000E+00	1.783200000000E-01
	O69	O	-2.500000000000E-01	0.000000000000E+00	-2.557200000000E-01
	O70	O	2.500000000000E-01	0.000000000000E+00	2.557200000000E-01
	O71	O	-5.000000000000E-01	0.000000000000E+00	0.000000000000E+00
	O72	O	0.000000000000E+00	0.000000000000E+00	0.000000000000E+00


data_ MSO
_chemical_name_common		'MSO'
_cell_length_a		11.90405113
_cell_length_b		11.90405113
_cell_length_c		11.90405113
_cell_angle_alpha		92.269751
_cell_angle_beta		92.269751
_cell_angle_gamma		92.269751
_space group_name_H-M_alt		'P 1'
_space_group_IT_number		1

loop_
	_atom_site_label
	_atom_site_type_symbol
	_atom_site_fract_x
	_atom_site_fract_y
	_atom_site_fract_z
	O1	O	3.806500000000E-01	9.490000000000E-02	3.806500000000E-01
	O2	O	3.806500000000E-01	3.806500000000E-01	9.490000000000E-02
	O3	O	9.490000000000E-02	3.806500000000E-01	3.806500000000E-01
	O4	O	-9.490000000000E-02	-3.806500000000E-01	-3.806500000000E-01
	O5	O	-3.806500000000E-01	-3.806500000000E-01	-9.490000000000E-02
	O6	O	-3.806500000000E-01	-9.490000000000E-02	-3.806500000000E-01
	O7	O	2.016000000000E-01	4.392000000000E-01	2.016000000000E-01
	O8	O	2.016000000000E-01	2.016000000000E-01	4.392000000000E-01
	O9	O	4.392000000000E-01	2.016000000000E-01	2.016000000000E-01
	O10	O	-4.392000000000E-01	-2.016000000000E-01	-2.016000000000E-01
	O11	O	-2.016000000000E-01	-2.016000000000E-01	-4.392000000000E-01
	O12	O	-2.016000000000E-01	-4.392000000000E-01	-2.016000000000E-01
	O13	O	2.985000000000E-01	-4.209000000000E-01	6.620000000000E-02
	O14	O	6.620000000000E-02	2.985000000000E-01	-4.209000000000E-01
	O15	O	-4.209000000000E-01	6.620000000000E-02	2.985000000000E-01
	O16	O	4.209000000000E-01	-2.985000000000E-01	-6.620000000000E-02
	O17	O	-2.985000000000E-01	-6.620000000000E-02	4.209000000000E-01
	O18	O	-6.620000000000E-02	4.209000000000E-01	-2.985000000000E-01
	O19	O	-2.985000000000E-01	4.209000000000E-01	-6.620000000000E-02
	O20	O	-6.620000000000E-02	-2.985000000000E-01	4.209000000000E-01
	O21	O	4.209000000000E-01	-6.620000000000E-02	-2.985000000000E-01
	O22	O	-4.209000000000E-01	2.985000000000E-01	6.620000000000E-02
	O23	O	2.985000000000E-01	6.620000000000E-02	-4.209000000000E-01
	O24	O	6.620000000000E-02	-4.209000000000E-01	2.985000000000E-01
	O25	O	1.874000000000E-01	3.974000000000E-01	-1.720000000000E-02
	O26	O	-1.720000000000E-02	1.874000000000E-01	3.974000000000E-01
	O27	O	3.974000000000E-01	-1.720000000000E-02	1.874000000000E-01
	O28	O	-3.974000000000E-01	-1.874000000000E-01	1.720000000000E-02
	O29	O	-1.874000000000E-01	1.720000000000E-02	-3.974000000000E-01
	O30	O	1.720000000000E-02	-3.974000000000E-01	-1.874000000000E-01
	O31	O	-1.874000000000E-01	-3.974000000000E-01	1.720000000000E-02
	O32	O	1.720000000000E-02	-1.874000000000E-01	-3.974000000000E-01
	O33	O	-3.974000000000E-01	1.720000000000E-02	-1.874000000000E-01
	O34	O	3.974000000000E-01	1.874000000000E-01	-1.720000000000E-02
	O35	O	1.874000000000E-01	-1.720000000000E-02	3.974000000000E-01
	O36	O	-1.720000000000E-02	3.974000000000E-01	1.874000000000E-01
	O37	O	1.771000000000E-01	-4.580000000000E-02	1.771000000000E-01
	O38	O	1.771000000000E-01	1.771000000000E-01	-4.580000000000E-02
	O39	O	-4.580000000000E-02	1.771000000000E-01	1.771000000000E-01
	O40	O	4.580000000000E-02	-1.771000000000E-01	-1.771000000000E-01
	O41	O	-1.771000000000E-01	-1.771000000000E-01	4.580000000000E-02
	O42	O	-1.771000000000E-01	4.580000000000E-02	-1.771000000000E-01
	O43	O	8.910000000000E-02	3.025000000000E-01	-2.005000000000E-01
	O44	O	-2.005000000000E-01	8.910000000000E-02	3.025000000000E-01
	O45	O	3.025000000000E-01	-2.005000000000E-01	8.910000000000E-02
	O46	O	-3.025000000000E-01	-8.910000000000E-02	2.005000000000E-01
	O47	O	-8.910000000000E-02	2.005000000000E-01	-3.025000000000E-01
	O48	O	2.005000000000E-01	-3.025000000000E-01	-8.910000000000E-02
	O49	O	-8.910000000000E-02	-3.025000000000E-01	2.005000000000E-01
	O50	O	2.005000000000E-01	-8.910000000000E-02	-3.025000000000E-01
	O51	O	-3.025000000000E-01	2.005000000000E-01	-8.910000000000E-02
	O52	O	3.025000000000E-01	8.910000000000E-02	-2.005000000000E-01
	O53	O	8.910000000000E-02	-2.005000000000E-01	3.025000000000E-01
	O54	O	-2.005000000000E-01	3.025000000000E-01	8.910000000000E-02
	O55	O	-6.400000000000E-03	2.855000000000E-01	-6.400000000000E-03
	O56	O	-6.400000000000E-03	-6.400000000000E-03	2.855000000000E-01
	O57	O	2.855000000000E-01	-6.400000000000E-03	-6.400000000000E-03
	O58	O	-2.855000000000E-01	6.400000000000E-03	6.400000000000E-03
	O59	O	6.400000000000E-03	6.400000000000E-03	-2.855000000000E-01
	O60	O	6.400000000000E-03	-2.855000000000E-01	6.400000000000E-03
	Si61	Si	2.669000000000E-01	4.490000000000E-01	8.630000000000E-02
	Si62	Si	8.630000000000E-02	2.669000000000E-01	4.490000000000E-01
	Si63	Si	4.490000000000E-01	8.630000000000E-02	2.669000000000E-01
	Si64	Si	-4.490000000000E-01	-2.669000000000E-01	-8.630000000000E-02
	Si65	Si	-2.669000000000E-01	-8.630000000000E-02	-4.490000000000E-01
	Si66	Si	-8.630000000000E-02	-4.490000000000E-01	-2.669000000000E-01
	Si67	Si	-2.669000000000E-01	-4.490000000000E-01	-8.630000000000E-02
	Si68	Si	-8.630000000000E-02	-2.669000000000E-01	-4.490000000000E-01
	Si69	Si	-4.490000000000E-01	-8.630000000000E-02	-2.669000000000E-01
	Si70	Si	4.490000000000E-01	2.669000000000E-01	8.630000000000E-02
	Si71	Si	2.669000000000E-01	8.630000000000E-02	4.490000000000E-01
	Si72	Si	8.630000000000E-02	4.490000000000E-01	2.669000000000E-01
	Si73	Si	1.119000000000E-01	2.906000000000E-01	-6.740000000000E-02
	Si74	Si	-6.740000000000E-02	1.119000000000E-01	2.906000000000E-01
	Si75	Si	2.906000000000E-01	-6.740000000000E-02	1.119000000000E-01
	Si76	Si	-2.906000000000E-01	-1.119000000000E-01	6.740000000000E-02
	Si77	Si	-1.119000000000E-01	6.740000000000E-02	-2.906000000000E-01
	Si78	Si	6.740000000000E-02	-2.906000000000E-01	-1.119000000000E-01
	Si79	Si	-1.119000000000E-01	-2.906000000000E-01	6.740000000000E-02
	Si80	Si	6.740000000000E-02	-1.119000000000E-01	-2.906000000000E-01
	Si81	Si	-2.906000000000E-01	6.740000000000E-02	-1.119000000000E-01
	Si82	Si	2.906000000000E-01	1.119000000000E-01	-6.740000000000E-02
	Si83	Si	1.119000000000E-01	-6.740000000000E-02	2.906000000000E-01
	Si84	Si	-6.740000000000E-02	2.906000000000E-01	1.119000000000E-01
	Si85	Si	3.056000000000E-01	-3.056000000000E-01	-3.084429125648E-18
	Si86	Si	6.716585677134E-17	3.056000000000E-01	-3.056000000000E-01
	Si87	Si	-3.056000000000E-01	8.326672684689E-17	3.056000000000E-01
	Si88	Si	-3.056000000000E-01	3.056000000000E-01	3.095022735608E-18
	Si89	Si	-6.716585677134E-17	-3.056000000000E-01	3.056000000000E-01
	Si90	Si	3.056000000000E-01	-8.326672684689E-17	-3.056000000000E-01


data_ MTF
_chemical_name_common		'MTF'
_cell_length_a		15.94139954
_cell_length_b		15.94139954
_cell_length_c		7.24900000
_cell_angle_alpha		89.864096
_cell_angle_beta		90.135904
_cell_angle_gamma		35.157023
_space group_name_H-M_alt		'P 1'
_space_group_IT_number		1

loop_
	_atom_site_label
	_atom_site_type_symbol
	_atom_site_fract_x
	_atom_site_fract_y
	_atom_site_fract_z
	O1	O	4.164000000000E-01	-1.282000000000E-01	1.397000000000E-01
	O2	O	-1.282000000000E-01	4.164000000000E-01	-1.397000000000E-01
	O3	O	-4.164000000000E-01	1.282000000000E-01	-1.397000000000E-01
	O4	O	1.282000000000E-01	-4.164000000000E-01	1.397000000000E-01
	O5	O	2.333000000000E-01	1.389000000000E-01	2.399000000000E-01
	O6	O	1.389000000000E-01	2.333000000000E-01	-2.399000000000E-01
	O7	O	-2.333000000000E-01	-1.389000000000E-01	-2.399000000000E-01
	O8	O	-1.389000000000E-01	-2.333000000000E-01	2.399000000000E-01
	O9	O	4.529000000000E-01	-8.170000000000E-02	4.571000000000E-01
	O10	O	-8.170000000000E-02	4.529000000000E-01	-4.571000000000E-01
	O11	O	-4.529000000000E-01	8.170000000000E-02	-4.571000000000E-01
	O12	O	8.170000000000E-02	-4.529000000000E-01	4.571000000000E-01
	O13	O	2.325000000000E-01	-5.500000000000E-03	4.109000000000E-01
	O14	O	-5.500000000000E-03	2.325000000000E-01	-4.109000000000E-01
	O15	O	-2.325000000000E-01	5.500000000000E-03	-4.109000000000E-01
	O16	O	5.500000000000E-03	-2.325000000000E-01	4.109000000000E-01
	O17	O	3.890000000000E-01	3.890000000000E-01	0.000000000000E+00
	O18	O	-3.890000000000E-01	-3.890000000000E-01	0.000000000000E+00
	O19	O	-4.946000000000E-01	1.756000000000E-01	2.077000000000E-01
	O20	O	1.756000000000E-01	-4.946000000000E-01	-2.077000000000E-01
	O21	O	4.946000000000E-01	-1.756000000000E-01	-2.077000000000E-01
	O22	O	-1.756000000000E-01	4.946000000000E-01	2.077000000000E-01
	O23	O	-3.384000000000E-01	1.776000000000E-01	1.056000000000E-01
	O24	O	1.776000000000E-01	-3.384000000000E-01	-1.056000000000E-01
	O25	O	3.384000000000E-01	-1.776000000000E-01	-1.056000000000E-01
	O26	O	-1.776000000000E-01	3.384000000000E-01	1.056000000000E-01
	O27	O	1.585000000000E-01	-1.585000000000E-01	-8.070000000000E-02
	O28	O	-1.585000000000E-01	1.585000000000E-01	8.070000000000E-02
	O29	O	6.760000000000E-02	6.760000000000E-02	0.000000000000E+00
	O30	O	-6.760000000000E-02	-6.760000000000E-02	0.000000000000E+00
	O31	O	1.218000000000E-01	-1.660000000000E-02	-3.432000000000E-01
	O32	O	-1.660000000000E-02	1.218000000000E-01	3.432000000000E-01
	O33	O	-1.218000000000E-01	1.660000000000E-02	3.432000000000E-01
	O34	O	1.660000000000E-02	-1.218000000000E-01	-3.432000000000E-01
	O35	O	3.219000000000E-01	2.161000000000E-01	3.450000000000E-01
	O36	O	2.161000000000E-01	3.219000000000E-01	-3.450000000000E-01
	O37	O	-3.219000000000E-01	-2.161000000000E-01	-3.450000000000E-01
	O38	O	-2.161000000000E-01	-3.219000000000E-01	3.450000000000E-01
	O39	O	-4.158000000000E-01	-4.640000000000E-02	2.551000000000E-01
	O40	O	-4.640000000000E-02	-4.158000000000E-01	-2.551000000000E-01
	O41	O	4.158000000000E-01	4.640000000000E-02	-2.551000000000E-01
	O42	O	4.640000000000E-02	4.158000000000E-01	2.551000000000E-01
	O43	O	2.492000000000E-01	2.492000000000E-01	0.000000000000E+00
	O44	O	-2.492000000000E-01	-2.492000000000E-01	0.000000000000E+00
	Si45	Si	1.723000000000E-01	-7.170000000000E-02	-1.322000000000E-01
	Si46	Si	-7.170000000000E-02	1.723000000000E-01	1.322000000000E-01
	Si47	Si	-1.723000000000E-01	7.170000000000E-02	1.322000000000E-01
	Si48	Si	7.170000000000E-02	-1.723000000000E-01	-1.322000000000E-01
	Si49	Si	3.339000000000E-01	-1.950000000000E-02	3.123000000000E-01
	Si50	Si	-1.950000000000E-02	3.339000000000E-01	-3.123000000000E-01
	Si51	Si	-3.339000000000E-01	1.950000000000E-02	-3.123000000000E-01
	Si52	Si	1.950000000000E-02	-3.339000000000E-01	3.123000000000E-01
	Si53	Si	-4.650000000000E-01	2.170000000000E-01	4.330000000000E-02
	Si54	Si	2.170000000000E-01	-4.650000000000E-01	-4.330000000000E-02
	Si55	Si	4.650000000000E-01	-2.170000000000E-01	-4.330000000000E-02
	Si56	Si	-2.170000000000E-01	4.650000000000E-01	4.330000000000E-02
	Si57	Si	4.903000000000E-01	1.067000000000E-01	3.379000000000E-01
	Si58	Si	1.067000000000E-01	4.903000000000E-01	-3.379000000000E-01
	Si59	Si	-4.903000000000E-01	-1.067000000000E-01	-3.379000000000E-01
	Si60	Si	-1.067000000000E-01	-4.903000000000E-01	3.379000000000E-01
	Si61	Si	2.124000000000E-01	2.554000000000E-01	2.104000000000E-01
	Si62	Si	2.554000000000E-01	2.124000000000E-01	-2.104000000000E-01
	Si63	Si	-2.124000000000E-01	-2.554000000000E-01	-2.104000000000E-01
	Si64	Si	-2.554000000000E-01	-2.124000000000E-01	2.104000000000E-01
	Si65	Si	8.330000000000E-02	8.330000000000E-02	-5.000000000000E-01
	Si66	Si	-8.330000000000E-02	-8.330000000000E-02	-5.000000000000E-01


data_ MTW
_chemical_name_common		'MTW'
_cell_length_a		13.04348726
_cell_length_b		13.04348726
_cell_length_c		24.23400000
_cell_angle_alpha		71.099236
_cell_angle_beta		108.900764
_cell_angle_gamma		156.752979
_space group_name_H-M_alt		'P 1'
_space_group_IT_number		1

loop_
	_atom_site_label
	_atom_site_type_symbol
	_atom_site_fract_x
	_atom_site_fract_y
	_atom_site_fract_z
	O1	O	4.500000000000E-03	-4.500000000000E-03	6.565000000000E-02
	O2	O	-4.500000000000E-03	4.500000000000E-03	-6.565000000000E-02
	O3	O	-1.541000000000E-01	-3.457000000000E-01	1.210500000000E-01
	O4	O	-3.457000000000E-01	-1.541000000000E-01	-1.210500000000E-01
	O5	O	1.541000000000E-01	3.457000000000E-01	-1.210500000000E-01
	O6	O	3.457000000000E-01	1.541000000000E-01	1.210500000000E-01
	O7	O	8.760000000000E-02	-8.760000000000E-02	2.450000000000E-02
	O8	O	-8.760000000000E-02	8.760000000000E-02	-2.450000000000E-02
	O9	O	3.326000000000E-01	1.674000000000E-01	-7.120000000000E-02
	O10	O	1.674000000000E-01	3.326000000000E-01	7.120000000000E-02
	O11	O	-3.326000000000E-01	-1.674000000000E-01	7.120000000000E-02
	O12	O	-1.674000000000E-01	-3.326000000000E-01	-7.120000000000E-02
	O13	O	3.440000000000E-01	-3.440000000000E-01	-2.145000000000E-01
	O14	O	-3.440000000000E-01	3.440000000000E-01	2.145000000000E-01
	O15	O	3.153000000000E-01	-3.153000000000E-01	-1.202500000000E-01
	O16	O	-3.153000000000E-01	3.153000000000E-01	1.202500000000E-01
	O17	O	3.434000000000E-01	-3.434000000000E-01	1.039500000000E-01
	O18	O	-3.434000000000E-01	3.434000000000E-01	-1.039500000000E-01
	O19	O	3.374000000000E-01	-3.374000000000E-01	-6.500000000000E-03
	O20	O	-3.374000000000E-01	3.374000000000E-01	6.500000000000E-03
	O21	O	7.000000000000E-04	4.991000000000E-01	-7.425000000000E-02
	O22	O	4.991000000000E-01	7.000000000000E-04	7.425000000000E-02
	O23	O	-7.000000000000E-04	-4.991000000000E-01	7.425000000000E-02
	O24	O	-4.991000000000E-01	-7.000000000000E-04	-7.425000000000E-02
	O25	O	2.838000000000E-01	-2.838000000000E-01	1.739000000000E-01
	O26	O	-2.838000000000E-01	2.838000000000E-01	-1.739000000000E-01
	O27	O	3.650196481841E-17	-5.000000000000E-01	2.500000000000E-01
	O28	O	-5.000000000000E-01	6.749999136074E-17	2.500000000000E-01
	Si29	Si	7.100000000000E-02	-7.100000000000E-02	8.300000000000E-02
	Si30	Si	-7.100000000000E-02	7.100000000000E-02	-8.300000000000E-02
	Si31	Si	6.210000000000E-02	-6.210000000000E-02	-4.585000000000E-02
	Si32	Si	-6.210000000000E-02	6.210000000000E-02	4.585000000000E-02
	Si33	Si	3.671000000000E-01	-3.671000000000E-01	-1.440500000000E-01
	Si34	Si	-3.671000000000E-01	3.671000000000E-01	1.440500000000E-01
	Si35	Si	3.789000000000E-01	-3.789000000000E-01	5.995000000000E-02
	Si36	Si	-3.789000000000E-01	3.789000000000E-01	-5.995000000000E-02
	Si37	Si	2.885000000000E-01	-2.885000000000E-01	-6.875000000000E-02
	Si38	Si	-2.885000000000E-01	2.885000000000E-01	6.875000000000E-02
	Si39	Si	2.813000000000E-01	-2.813000000000E-01	1.067000000000E-01
	Si40	Si	-2.813000000000E-01	2.813000000000E-01	-1.067000000000E-01
	Si41	Si	2.818000000000E-01	-2.818000000000E-01	-2.604500000000E-01
	Si42	Si	-2.818000000000E-01	2.818000000000E-01	2.604500000000E-01
	O43	O	-3.326000000000E-01	-1.674000000000E-01	-4.288000000000E-01
	O44	O	4.991000000000E-01	7.000000000001E-04	-4.257500000000E-01
	O45	O	3.457000000000E-01	1.541000000000E-01	-3.789500000000E-01
	O46	O	-7.000000000000E-04	-4.991000000000E-01	-4.257500000000E-01
	O47	O	-1.674000000000E-01	-3.326000000000E-01	4.288000000000E-01
	O48	O	-4.991000000000E-01	-7.000000000000E-04	4.257500000000E-01
	O49	O	-4.500000000000E-03	4.500000000000E-03	4.343500000000E-01
	O50	O	2.838000000000E-01	-2.838000000000E-01	-3.261000000000E-01
	O51	O	3.440000000000E-01	-3.440000000000E-01	2.855000000000E-01
	O52	O	-2.838000000000E-01	2.838000000000E-01	3.261000000000E-01
	O53	O	8.760000000000E-02	-8.760000000000E-02	-4.755000000000E-01
	O54	O	8.839812545192E-17	5.000000000000E-01	-2.500000000000E-01
	O55	O	-3.440000000000E-01	3.440000000000E-01	-2.855000000000E-01
	O56	O	5.000000000000E-01	1.888947678335E-18	-2.500000000000E-01
	O57	O	-3.457000000000E-01	-1.541000000000E-01	3.789500000000E-01
	Si58	Si	7.100000000000E-02	-7.100000000000E-02	-4.170000000000E-01
	O59	O	3.153000000000E-01	-3.153000000000E-01	3.797500000000E-01
	Si60	Si	-7.100000000000E-02	7.100000000000E-02	4.170000000000E-01
	O61	O	-8.760000000000E-02	8.760000000000E-02	4.755000000000E-01
	Si62	Si	6.210000000000E-02	-6.210000000000E-02	4.541500000000E-01
	O63	O	-3.153000000000E-01	3.153000000000E-01	-3.797500000000E-01
	Si64	Si	-6.210000000000E-02	6.210000000000E-02	-4.541500000000E-01
	O65	O	4.500000000000E-03	-4.500000000000E-03	-4.343500000000E-01
	Si66	Si	3.671000000000E-01	-3.671000000000E-01	3.559500000000E-01
	O67	O	3.434000000000E-01	-3.434000000000E-01	-3.960500000000E-01
	Si68	Si	-3.671000000000E-01	3.671000000000E-01	-3.559500000000E-01
	O69	O	3.326000000000E-01	1.674000000000E-01	4.288000000000E-01
	Si70	Si	3.789000000000E-01	-3.789000000000E-01	-4.400500000000E-01
	O71	O	-3.434000000000E-01	3.434000000000E-01	3.960500000000E-01
	Si72	Si	-3.789000000000E-01	3.789000000000E-01	4.400500000000E-01
	O73	O	1.541000000000E-01	3.457000000000E-01	3.789500000000E-01
	Si74	Si	2.885000000000E-01	-2.885000000000E-01	4.312500000000E-01
	O75	O	3.374000000000E-01	-3.374000000000E-01	4.935000000000E-01
	Si76	Si	-2.885000000000E-01	2.885000000000E-01	-4.312500000000E-01
	O77	O	1.674000000000E-01	3.326000000000E-01	-4.288000000000E-01
	Si78	Si	2.813000000000E-01	-2.813000000000E-01	-3.933000000000E-01
	O79	O	-3.374000000000E-01	3.374000000000E-01	-4.935000000000E-01
	Si80	Si	-2.813000000000E-01	2.813000000000E-01	3.933000000000E-01
	O81	O	-1.541000000000E-01	-3.457000000000E-01	-3.789500000000E-01
	Si82	Si	2.818000000000E-01	-2.818000000000E-01	2.395500000000E-01
	O83	O	6.999999999999E-04	4.991000000000E-01	4.257500000000E-01
	Si84	Si	-2.818000000000E-01	2.818000000000E-01	-2.395500000000E-01


data_ NPT
_chemical_name_common		'NPT'
_cell_length_a		13.88300000
_cell_length_b		13.88300000
_cell_length_c		13.88300000
_cell_angle_alpha		90.000000
_cell_angle_beta		90.000000
_cell_angle_gamma		90.000000
_space group_name_H-M_alt		'P 1'
_space_group_IT_number		1

loop_
	_atom_site_label
	_atom_site_type_symbol
	_atom_site_fract_x
	_atom_site_fract_y
	_atom_site_fract_z
	O1	O	2.760000000000E-01	2.760000000000E-01	5.000000000000E-01
	O2	O	-2.760000000000E-01	-2.760000000000E-01	5.000000000000E-01
	O3	O	2.760000000000E-01	-2.760000000000E-01	5.000000000000E-01
	O4	O	-2.760000000000E-01	2.760000000000E-01	5.000000000000E-01
	O5	O	5.000000000000E-01	2.760000000000E-01	2.760000000000E-01
	O6	O	2.760000000000E-01	5.000000000000E-01	2.760000000000E-01
	O7	O	5.000000000000E-01	-2.760000000000E-01	2.760000000000E-01
	O8	O	-2.760000000000E-01	5.000000000000E-01	-2.760000000000E-01
	O9	O	5.000000000000E-01	-2.760000000000E-01	-2.760000000000E-01
	O10	O	-2.760000000000E-01	5.000000000000E-01	2.760000000000E-01
	O11	O	5.000000000000E-01	2.760000000000E-01	-2.760000000000E-01
	O12	O	2.760000000000E-01	5.000000000000E-01	-2.760000000000E-01
	O13	O	3.348000000000E-01	2.019000000000E-01	3.348000000000E-01
	O14	O	-3.348000000000E-01	-2.019000000000E-01	3.348000000000E-01
	O15	O	3.348000000000E-01	-2.019000000000E-01	-3.348000000000E-01
	O16	O	-3.348000000000E-01	2.019000000000E-01	-3.348000000000E-01
	O17	O	3.348000000000E-01	3.348000000000E-01	2.019000000000E-01
	O18	O	2.019000000000E-01	3.348000000000E-01	3.348000000000E-01
	O19	O	-3.348000000000E-01	-3.348000000000E-01	2.019000000000E-01
	O20	O	-2.019000000000E-01	3.348000000000E-01	-3.348000000000E-01
	O21	O	3.348000000000E-01	-3.348000000000E-01	-2.019000000000E-01
	O22	O	-2.019000000000E-01	-3.348000000000E-01	3.348000000000E-01
	O23	O	-3.348000000000E-01	3.348000000000E-01	-2.019000000000E-01
	O24	O	2.019000000000E-01	-3.348000000000E-01	-3.348000000000E-01
	O25	O	-2.019000000000E-01	-3.348000000000E-01	-3.348000000000E-01
	O26	O	2.019000000000E-01	3.348000000000E-01	-3.348000000000E-01
	O27	O	2.019000000000E-01	-3.348000000000E-01	3.348000000000E-01
	O28	O	-2.019000000000E-01	3.348000000000E-01	3.348000000000E-01
	O29	O	-3.348000000000E-01	-3.348000000000E-01	-2.019000000000E-01
	O30	O	-3.348000000000E-01	-2.019000000000E-01	-3.348000000000E-01
	O31	O	3.348000000000E-01	3.348000000000E-01	-2.019000000000E-01
	O32	O	-3.348000000000E-01	2.019000000000E-01	3.348000000000E-01
	O33	O	3.348000000000E-01	-3.348000000000E-01	2.019000000000E-01
	O34	O	3.348000000000E-01	2.019000000000E-01	-3.348000000000E-01
	O35	O	-3.348000000000E-01	3.348000000000E-01	2.019000000000E-01
	O36	O	3.348000000000E-01	-2.019000000000E-01	3.348000000000E-01
	O37	O	1.618000000000E-01	1.618000000000E-01	4.056000000000E-01
	O38	O	-1.618000000000E-01	-1.618000000000E-01	4.056000000000E-01
	O39	O	1.618000000000E-01	-1.618000000000E-01	-4.056000000000E-01
	O40	O	-1.618000000000E-01	1.618000000000E-01	-4.056000000000E-01
	O41	O	4.056000000000E-01	1.618000000000E-01	1.618000000000E-01
	O42	O	1.618000000000E-01	4.056000000000E-01	1.618000000000E-01
	O43	O	-4.056000000000E-01	-1.618000000000E-01	1.618000000000E-01
	O44	O	-1.618000000000E-01	4.056000000000E-01	-1.618000000000E-01
	O45	O	4.056000000000E-01	-1.618000000000E-01	-1.618000000000E-01
	O46	O	-1.618000000000E-01	-4.056000000000E-01	1.618000000000E-01
	O47	O	-4.056000000000E-01	1.618000000000E-01	-1.618000000000E-01
	O48	O	1.618000000000E-01	-4.056000000000E-01	-1.618000000000E-01
	O49	O	-1.618000000000E-01	-1.618000000000E-01	-4.056000000000E-01
	O50	O	1.618000000000E-01	1.618000000000E-01	-4.056000000000E-01
	O51	O	1.618000000000E-01	-1.618000000000E-01	4.056000000000E-01
	O52	O	-1.618000000000E-01	1.618000000000E-01	4.056000000000E-01
	O53	O	-1.618000000000E-01	-4.056000000000E-01	-1.618000000000E-01
	O54	O	-4.056000000000E-01	-1.618000000000E-01	-1.618000000000E-01
	O55	O	1.618000000000E-01	4.056000000000E-01	-1.618000000000E-01
	O56	O	-4.056000000000E-01	1.618000000000E-01	1.618000000000E-01
	O57	O	1.618000000000E-01	-4.056000000000E-01	1.618000000000E-01
	O58	O	4.056000000000E-01	1.618000000000E-01	-1.618000000000E-01
	O59	O	-1.618000000000E-01	4.056000000000E-01	1.618000000000E-01
	O60	O	4.056000000000E-01	-1.618000000000E-01	1.618000000000E-01
	O61	O	1.344000000000E-01	0.000000000000E+00	5.000000000000E-01
	O62	O	-1.344000000000E-01	0.000000000000E+00	5.000000000000E-01
	O63	O	5.000000000000E-01	1.344000000000E-01	0.000000000000E+00
	O64	O	0.000000000000E+00	5.000000000000E-01	1.344000000000E-01
	O65	O	5.000000000000E-01	-1.344000000000E-01	0.000000000000E+00
	O66	O	0.000000000000E+00	5.000000000000E-01	-1.344000000000E-01
	O67	O	0.000000000000E+00	-1.344000000000E-01	5.000000000000E-01
	O68	O	0.000000000000E+00	1.344000000000E-01	5.000000000000E-01
	O69	O	-1.344000000000E-01	5.000000000000E-01	0.000000000000E+00
	O70	O	5.000000000000E-01	0.000000000000E+00	-1.344000000000E-01
	O71	O	1.344000000000E-01	5.000000000000E-01	0.000000000000E+00
	O72	O	5.000000000000E-01	0.000000000000E+00	1.344000000000E-01
	Si73	Si	2.435000000000E-01	2.435000000000E-01	3.933000000000E-01
	Si74	Si	-2.435000000000E-01	-2.435000000000E-01	3.933000000000E-01
	Si75	Si	2.435000000000E-01	-2.435000000000E-01	-3.933000000000E-01
	Si76	Si	-2.435000000000E-01	2.435000000000E-01	-3.933000000000E-01
	Si77	Si	3.933000000000E-01	2.435000000000E-01	2.435000000000E-01
	Si78	Si	2.435000000000E-01	3.933000000000E-01	2.435000000000E-01
	Si79	Si	-3.933000000000E-01	-2.435000000000E-01	2.435000000000E-01
	Si80	Si	-2.435000000000E-01	3.933000000000E-01	-2.435000000000E-01
	Si81	Si	3.933000000000E-01	-2.435000000000E-01	-2.435000000000E-01
	Si82	Si	-2.435000000000E-01	-3.933000000000E-01	2.435000000000E-01
	Si83	Si	-3.933000000000E-01	2.435000000000E-01	-2.435000000000E-01
	Si84	Si	2.435000000000E-01	-3.933000000000E-01	-2.435000000000E-01
	Si85	Si	-2.435000000000E-01	-2.435000000000E-01	-3.933000000000E-01
	Si86	Si	2.435000000000E-01	2.435000000000E-01	-3.933000000000E-01
	Si87	Si	2.435000000000E-01	-2.435000000000E-01	3.933000000000E-01
	Si88	Si	-2.435000000000E-01	2.435000000000E-01	3.933000000000E-01
	Si89	Si	-2.435000000000E-01	-3.933000000000E-01	-2.435000000000E-01
	Si90	Si	-3.933000000000E-01	-2.435000000000E-01	-2.435000000000E-01
	Si91	Si	2.435000000000E-01	3.933000000000E-01	-2.435000000000E-01
	Si92	Si	-3.933000000000E-01	2.435000000000E-01	2.435000000000E-01
	Si93	Si	2.435000000000E-01	-3.933000000000E-01	2.435000000000E-01
	Si94	Si	3.933000000000E-01	2.435000000000E-01	-2.435000000000E-01
	Si95	Si	-2.435000000000E-01	3.933000000000E-01	2.435000000000E-01
	Si96	Si	3.933000000000E-01	-2.435000000000E-01	2.435000000000E-01
	Si97	Si	1.139000000000E-01	1.139000000000E-01	5.000000000000E-01
	Si98	Si	-1.139000000000E-01	-1.139000000000E-01	5.000000000000E-01
	Si99	Si	1.139000000000E-01	-1.139000000000E-01	5.000000000000E-01
	Si100	Si	-1.139000000000E-01	1.139000000000E-01	5.000000000000E-01
	Si101	Si	5.000000000000E-01	1.139000000000E-01	1.139000000000E-01
	Si102	Si	1.139000000000E-01	5.000000000000E-01	1.139000000000E-01
	Si103	Si	5.000000000000E-01	-1.139000000000E-01	1.139000000000E-01
	Si104	Si	-1.139000000000E-01	5.000000000000E-01	-1.139000000000E-01
	Si105	Si	5.000000000000E-01	-1.139000000000E-01	-1.139000000000E-01
	Si106	Si	-1.139000000000E-01	5.000000000000E-01	1.139000000000E-01
	Si107	Si	5.000000000000E-01	1.139000000000E-01	-1.139000000000E-01
	Si108	Si	1.139000000000E-01	5.000000000000E-01	-1.139000000000E-01


data_ OBW
_chemical_name_common		'OBW'
_cell_length_a		18.29310750
_cell_length_b		18.29310750
_cell_length_c		18.29310750
_cell_angle_alpha		135.294578
_cell_angle_beta		135.294578
_cell_angle_gamma		65.072835
_space group_name_H-M_alt		'P 1'
_space_group_IT_number		1

loop_
	_atom_site_label
	_atom_site_type_symbol
	_atom_site_fract_x
	_atom_site_fract_y
	_atom_site_fract_z
	O1	O	3.530000000000E-01	-1.470000000000E-01	5.000000000000E-01
	O2	O	-3.530000000000E-01	1.470000000000E-01	5.000000000000E-01
	O3	O	1.470000000000E-01	-3.530000000000E-01	5.000000000000E-01
	O4	O	-1.470000000000E-01	3.530000000000E-01	5.000000000000E-01
	O5	O	9.642469738226E-18	1.340000000000E-01	1.340000000000E-01
	O6	O	-1.891302221467E-17	-1.340000000000E-01	-1.340000000000E-01
	O7	O	-1.340000000000E-01	-4.986547252316E-17	-1.340000000000E-01
	O8	O	1.340000000000E-01	4.986547252316E-17	1.340000000000E-01
	O9	O	2.039000000000E-01	2.039000000000E-01	3.230000000000E-01
	O10	O	-1.191000000000E-01	-1.191000000000E-01	-3.230000000000E-01
	O11	O	-2.039000000000E-01	1.191000000000E-01	6.507532501868E-17
	O12	O	1.191000000000E-01	-2.039000000000E-01	-5.905170151046E-17
	O13	O	-2.039000000000E-01	-2.039000000000E-01	-3.230000000000E-01
	O14	O	1.191000000000E-01	1.191000000000E-01	3.230000000000E-01
	O15	O	-1.191000000000E-01	2.039000000000E-01	3.540550279205E-18
	O16	O	2.039000000000E-01	-1.191000000000E-01	-3.540550279205E-18
	O17	O	4.426000000000E-01	-3.156000000000E-01	4.306000000000E-01
	O18	O	2.538000000000E-01	1.200000000000E-02	-4.306000000000E-01
	O19	O	-4.426000000000E-01	-1.200000000000E-02	2.418000000000E-01
	O20	O	-2.538000000000E-01	3.156000000000E-01	-2.418000000000E-01
	O21	O	3.156000000000E-01	-4.426000000000E-01	-4.306000000000E-01
	O22	O	-1.200000000000E-02	-2.538000000000E-01	4.306000000000E-01
	O23	O	1.200000000000E-02	4.426000000000E-01	-2.418000000000E-01
	O24	O	-3.156000000000E-01	2.538000000000E-01	2.418000000000E-01
	O25	O	-4.426000000000E-01	3.156000000000E-01	-4.306000000000E-01
	O26	O	-2.538000000000E-01	-1.200000000000E-02	4.306000000000E-01
	O27	O	4.426000000000E-01	1.200000000000E-02	-2.418000000000E-01
	O28	O	2.538000000000E-01	-3.156000000000E-01	2.418000000000E-01
	O29	O	-3.156000000000E-01	4.426000000000E-01	4.306000000000E-01
	O30	O	1.200000000000E-02	2.538000000000E-01	-4.306000000000E-01
	O31	O	-1.200000000000E-02	-4.426000000000E-01	2.418000000000E-01
	O32	O	3.156000000000E-01	-2.538000000000E-01	-2.418000000000E-01
	O33	O	2.804000000000E-01	-3.139000000000E-01	4.057000000000E-01
	O34	O	2.804000000000E-01	-1.253000000000E-01	-4.057000000000E-01
	O35	O	-2.804000000000E-01	1.253000000000E-01	4.057000000000E-01
	O36	O	-2.804000000000E-01	3.139000000000E-01	-4.057000000000E-01
	O37	O	3.139000000000E-01	-2.804000000000E-01	-4.057000000000E-01
	O38	O	1.253000000000E-01	-2.804000000000E-01	4.057000000000E-01
	O39	O	-1.253000000000E-01	2.804000000000E-01	-4.057000000000E-01
	O40	O	-3.139000000000E-01	2.804000000000E-01	4.057000000000E-01
	O41	O	4.008000000000E-01	-3.743000000000E-01	2.249000000000E-01
	O42	O	4.008000000000E-01	1.759000000000E-01	-2.249000000000E-01
	O43	O	-4.008000000000E-01	-1.759000000000E-01	2.249000000000E-01
	O44	O	-4.008000000000E-01	3.743000000000E-01	-2.249000000000E-01
	O45	O	3.743000000000E-01	-4.008000000000E-01	-2.249000000000E-01
	O46	O	-1.759000000000E-01	-4.008000000000E-01	2.249000000000E-01
	O47	O	1.759000000000E-01	4.008000000000E-01	-2.249000000000E-01
	O48	O	-3.743000000000E-01	4.008000000000E-01	2.249000000000E-01
	O49	O	2.748000000000E-01	4.082000000000E-01	-4.650000000000E-01
	O50	O	-1.268000000000E-01	-2.602000000000E-01	4.650000000000E-01
	O51	O	-2.748000000000E-01	2.602000000000E-01	1.334000000000E-01
	O52	O	1.268000000000E-01	-4.082000000000E-01	-1.334000000000E-01
	O53	O	-4.082000000000E-01	-2.748000000000E-01	4.650000000000E-01
	O54	O	2.602000000000E-01	1.268000000000E-01	-4.650000000000E-01
	O55	O	-2.602000000000E-01	2.748000000000E-01	-1.334000000000E-01
	O56	O	4.082000000000E-01	-1.268000000000E-01	1.334000000000E-01
	O57	O	-2.748000000000E-01	-4.082000000000E-01	4.650000000000E-01
	O58	O	1.268000000000E-01	2.602000000000E-01	-4.650000000000E-01
	O59	O	2.748000000000E-01	-2.602000000000E-01	-1.334000000000E-01
	O60	O	-1.268000000000E-01	4.082000000000E-01	1.334000000000E-01
	O61	O	4.082000000000E-01	2.748000000000E-01	-4.650000000000E-01
	O62	O	-2.602000000000E-01	-1.268000000000E-01	4.650000000000E-01
	O63	O	2.602000000000E-01	-2.748000000000E-01	1.334000000000E-01
	O64	O	-4.082000000000E-01	1.268000000000E-01	-1.334000000000E-01
	O65	O	-4.683000000000E-01	-4.683000000000E-01	3.284000000000E-01
	O66	O	2.033000000000E-01	2.033000000000E-01	-3.284000000000E-01
	O67	O	4.683000000000E-01	-2.033000000000E-01	5.913801812088E-18
	O68	O	-2.033000000000E-01	4.683000000000E-01	-5.913801812088E-18
	O69	O	4.683000000000E-01	4.683000000000E-01	-3.284000000000E-01
	O70	O	-2.033000000000E-01	-2.033000000000E-01	3.284000000000E-01
	O71	O	2.033000000000E-01	-4.683000000000E-01	5.913801812088E-18
	O72	O	-4.683000000000E-01	2.033000000000E-01	-5.913801812088E-18
	O73	O	2.754000000000E-01	2.754000000000E-01	-4.492000000000E-01
	O74	O	-2.754000000000E-01	-2.754000000000E-01	4.492000000000E-01
	O75	O	-2.754000000000E-01	2.754000000000E-01	-9.457618088214E-17
	O76	O	2.754000000000E-01	-2.754000000000E-01	9.457618088214E-17
	Si77	Si	4.919000000000E-01	-3.581000000000E-01	3.626000000000E-01
	Si78	Si	2.793000000000E-01	1.293000000000E-01	-3.626000000000E-01
	Si79	Si	-4.919000000000E-01	-1.293000000000E-01	1.500000000000E-01
	Si80	Si	-2.793000000000E-01	3.581000000000E-01	-1.500000000000E-01
	Si81	Si	3.581000000000E-01	-4.919000000000E-01	-3.626000000000E-01
	Si82	Si	-1.293000000000E-01	-2.793000000000E-01	3.626000000000E-01
	Si83	Si	1.293000000000E-01	4.919000000000E-01	-1.500000000000E-01
	Si84	Si	-3.581000000000E-01	2.793000000000E-01	1.500000000000E-01
	Si85	Si	-4.919000000000E-01	3.581000000000E-01	-3.626000000000E-01
	Si86	Si	-2.793000000000E-01	-1.293000000000E-01	3.626000000000E-01
	Si87	Si	4.919000000000E-01	1.293000000000E-01	-1.500000000000E-01
	Si88	Si	2.793000000000E-01	-3.581000000000E-01	1.500000000000E-01
	Si89	Si	-3.581000000000E-01	4.919000000000E-01	3.626000000000E-01
	Si90	Si	1.293000000000E-01	2.793000000000E-01	-3.626000000000E-01
	Si91	Si	-1.293000000000E-01	-4.919000000000E-01	1.500000000000E-01
	Si92	Si	3.581000000000E-01	-2.793000000000E-01	-1.500000000000E-01
	Si93	Si	-2.742000000000E-01	3.323000000000E-01	3.935000000000E-01
	Si94	Si	-6.120000000000E-02	3.323000000000E-01	-3.935000000000E-01
	Si95	Si	2.742000000000E-01	-3.323000000000E-01	-3.935000000000E-01
	Si96	Si	6.120000000000E-02	-3.323000000000E-01	3.935000000000E-01
	Si97	Si	-3.323000000000E-01	2.742000000000E-01	-3.935000000000E-01
	Si98	Si	-3.323000000000E-01	6.120000000000E-02	3.935000000000E-01
	Si99	Si	3.323000000000E-01	-2.742000000000E-01	3.935000000000E-01
	Si100	Si	3.323000000000E-01	-6.120000000000E-02	-3.935000000000E-01
	Si101	Si	2.910000000000E-01	2.910000000000E-01	4.860000000000E-01
	Si102	Si	-1.950000000000E-01	-1.950000000000E-01	-4.860000000000E-01
	Si103	Si	-2.910000000000E-01	1.950000000000E-01	3.499436480742E-18
	Si104	Si	1.950000000000E-01	-2.910000000000E-01	-3.499436480742E-18
	Si105	Si	-2.910000000000E-01	-2.910000000000E-01	-4.860000000000E-01
	Si106	Si	1.950000000000E-01	1.950000000000E-01	4.860000000000E-01
	Si107	Si	-1.950000000000E-01	2.910000000000E-01	3.499436480742E-18
	Si108	Si	2.910000000000E-01	-1.950000000000E-01	-3.499436480742E-18
	Si109	Si	1.137000000000E-01	1.137000000000E-01	2.274000000000E-01
	Si110	Si	-1.137000000000E-01	-1.137000000000E-01	-2.274000000000E-01
	Si111	Si	-1.137000000000E-01	1.137000000000E-01	-4.319776837640E-18
	Si112	Si	1.137000000000E-01	-1.137000000000E-01	4.319776837640E-18
	Si113	Si	-2.500000000000E-01	2.500000000000E-01	5.000000000000E-01
	Si114	Si	2.500000000000E-01	-2.500000000000E-01	5.000000000000E-01


data_ OFF
_chemical_name_common		'OFF'
_cell_length_a		26.12600000
_cell_length_b		13.06300000
_cell_length_c		7.56500000
_cell_angle_alpha		90.000000
_cell_angle_beta		90.000000
_cell_angle_gamma		120.000000
_space group_name_H-M_alt		'P 1'
_space_group_IT_number		1

loop_
	_atom_site_label
	_atom_site_type_symbol
	_atom_site_fract_x
	_atom_site_fract_y
	_atom_site_fract_z
	O1	O	4.802500000000E-02	-9.605000000000E-02	2.244000000000E-01
	O2	O	4.802500000000E-02	1.921000000000E-01	2.244000000000E-01
	O3	O	-9.605000000000E-02	-9.605000000000E-02	2.244000000000E-01
	O4	O	4.802500000000E-02	-9.605000000000E-02	-2.244000000000E-01
	O5	O	4.802500000000E-02	1.921000000000E-01	-2.244000000000E-01
	O6	O	-9.605000000000E-02	-9.605000000000E-02	-2.244000000000E-01
	O7	O	-6.410000000000E-02	1.282000000000E-01	2.618000000000E-01
	O8	O	-6.410000000000E-02	-2.564000000000E-01	2.618000000000E-01
	O9	O	1.282000000000E-01	1.282000000000E-01	2.618000000000E-01
	O10	O	-6.410000000000E-02	1.282000000000E-01	-2.618000000000E-01
	O11	O	-6.410000000000E-02	-2.564000000000E-01	-2.618000000000E-01
	O12	O	1.282000000000E-01	1.282000000000E-01	-2.618000000000E-01
	O13	O	1.825000000000E-02	3.477000000000E-01	3.263000000000E-01
	O14	O	-1.738500000000E-01	-3.112000000000E-01	3.263000000000E-01
	O15	O	1.556000000000E-01	-3.650000000000E-02	3.263000000000E-01
	O16	O	-1.738500000000E-01	-3.650000000000E-02	-3.263000000000E-01
	O17	O	1.825000000000E-02	-3.112000000000E-01	-3.263000000000E-01
	O18	O	1.556000000000E-01	3.477000000000E-01	-3.263000000000E-01
	O19	O	1.556000000000E-01	3.477000000000E-01	3.263000000000E-01
	O20	O	1.825000000000E-02	-3.112000000000E-01	3.263000000000E-01
	O21	O	-1.738500000000E-01	-3.650000000000E-02	3.263000000000E-01
	O22	O	1.825000000000E-02	3.477000000000E-01	-3.263000000000E-01
	O23	O	1.556000000000E-01	-3.650000000000E-02	-3.263000000000E-01
	O24	O	-1.738500000000E-01	-3.112000000000E-01	-3.263000000000E-01
	O25	O	-2.500000000000E-03	2.679000000000E-01	0.000000000000E+00
	O26	O	-1.339500000000E-01	-2.729000000000E-01	0.000000000000E+00
	O27	O	1.364500000000E-01	5.000000000000E-03	0.000000000000E+00
	O28	O	-1.339500000000E-01	5.000000000000E-03	0.000000000000E+00
	O29	O	-2.500000000000E-03	-2.729000000000E-01	0.000000000000E+00
	O30	O	1.364500000000E-01	2.679000000000E-01	0.000000000000E+00
	O31	O	1.179500000000E-01	-2.359000000000E-01	-5.000000000000E-01
	O32	O	1.179500000000E-01	4.718000000000E-01	-5.000000000000E-01
	O33	O	-2.359000000000E-01	-2.359000000000E-01	-5.000000000000E-01
	O34	O	-2.689000000000E-01	-4.622000000000E-01	-5.000000000000E-01
	O35	O	-2.689000000000E-01	-7.560000000000E-02	-5.000000000000E-01
	O36	O	3.780000000000E-02	-4.622000000000E-01	-5.000000000000E-01
	Si37	Si	-1.000000000000E-04	2.340000000000E-01	2.032000000000E-01
	Si38	Si	-1.170000000000E-01	-2.342000000000E-01	2.032000000000E-01
	Si39	Si	1.171000000000E-01	2.000000000000E-04	2.032000000000E-01
	Si40	Si	-1.170000000000E-01	2.000000000001E-04	-2.032000000000E-01
	Si41	Si	-1.000000000000E-04	-2.342000000000E-01	-2.032000000000E-01
	Si42	Si	1.171000000000E-01	2.340000000000E-01	-2.032000000000E-01
	Si43	Si	1.171000000000E-01	2.340000000000E-01	2.032000000000E-01
	Si44	Si	-1.000000000000E-04	-2.342000000000E-01	2.032000000000E-01
	Si45	Si	-1.170000000000E-01	2.000000000001E-04	2.032000000000E-01
	Si46	Si	-1.000000000000E-04	2.340000000000E-01	-2.032000000000E-01
	Si47	Si	1.171000000000E-01	2.000000000000E-04	-2.032000000000E-01
	Si48	Si	-1.170000000000E-01	-2.342000000000E-01	-2.032000000000E-01
	Si49	Si	4.820000000000E-02	4.264000000000E-01	-5.000000000000E-01
	Si50	Si	-2.132000000000E-01	-3.300000000000E-01	-5.000000000000E-01
	Si51	Si	1.650000000000E-01	-9.640000000000E-02	-5.000000000000E-01
	Si52	Si	-2.132000000000E-01	-9.640000000000E-02	-5.000000000000E-01
	Si53	Si	4.820000000000E-02	-3.300000000000E-01	-5.000000000000E-01
	Si54	Si	1.650000000000E-01	4.264000000000E-01	-5.000000000000E-01
	O55	O	3.261500000000E-01	-3.112000000000E-01	3.263000000000E-01
	O56	O	3.660500000000E-01	5.000000000000E-03	0.000000000000E+00
	O57	O	-4.519750000000E-01	-9.605000000000E-02	-2.244000000000E-01
	O58	O	4.975000000000E-01	-2.729000000000E-01	0.000000000000E+00
	O59	O	-3.444000000000E-01	-3.650000000000E-02	3.263000000000E-01
	O60	O	-3.635500000000E-01	2.679000000000E-01	0.000000000000E+00
	O61	O	4.359000000000E-01	-2.564000000000E-01	2.618000000000E-01
	O62	O	-3.820500000000E-01	-2.359000000000E-01	-5.000000000000E-01
	O63	O	3.261500000000E-01	-3.650000000000E-02	-3.263000000000E-01
	O64	O	-3.820500000000E-01	4.718000000000E-01	-5.000000000000E-01
	O65	O	-4.519750000000E-01	-9.605000000000E-02	2.244000000000E-01
	O66	O	2.641000000000E-01	-2.359000000000E-01	-5.000000000000E-01
	O67	O	-4.817500000000E-01	-3.112000000000E-01	-3.263000000000E-01
	O68	O	2.311000000000E-01	-4.622000000000E-01	-5.000000000000E-01
	O69	O	-3.718000000000E-01	1.282000000000E-01	2.618000000000E-01
	O70	O	2.311000000000E-01	-7.560000000000E-02	-5.000000000000E-01
	O71	O	-3.444000000000E-01	3.477000000000E-01	-3.263000000000E-01
	O72	O	-4.622000000000E-01	-4.622000000000E-01	-5.000000000000E-01
	O73	O	-4.519750000000E-01	1.921000000000E-01	-2.244000000000E-01
	Si74	Si	4.999000000000E-01	2.340000000000E-01	2.032000000000E-01
	O75	O	-3.444000000000E-01	3.477000000000E-01	3.263000000000E-01
	Si76	Si	3.830000000000E-01	-2.342000000000E-01	2.032000000000E-01
	O77	O	4.359000000000E-01	1.282000000000E-01	-2.618000000000E-01
	Si78	Si	-3.829000000000E-01	2.000000000002E-04	2.032000000000E-01
	O79	O	-4.817500000000E-01	-3.112000000000E-01	3.263000000000E-01
	Si80	Si	3.830000000000E-01	1.999999999996E-04	-2.032000000000E-01
	O81	O	4.039500000000E-01	-9.605000000000E-02	2.244000000000E-01
	Si82	Si	4.999000000000E-01	-2.342000000000E-01	-2.032000000000E-01
	O83	O	3.261500000000E-01	-3.650000000000E-02	3.263000000000E-01
	Si84	Si	-3.829000000000E-01	2.340000000000E-01	-2.032000000000E-01
	O85	O	4.359000000000E-01	-2.564000000000E-01	-2.618000000000E-01
	Si86	Si	-3.829000000000E-01	2.340000000000E-01	2.032000000000E-01
	O87	O	-4.817500000000E-01	3.477000000000E-01	-3.263000000000E-01
	Si88	Si	4.999000000000E-01	-2.342000000000E-01	2.032000000000E-01
	O89	O	4.039500000000E-01	-9.605000000000E-02	-2.244000000000E-01
	Si90	Si	3.830000000000E-01	1.999999999996E-04	2.032000000000E-01
	O91	O	-3.444000000000E-01	-3.650000000000E-02	-3.263000000000E-01
	Si92	Si	4.999000000000E-01	2.340000000000E-01	-2.032000000000E-01
	O93	O	-3.718000000000E-01	1.282000000000E-01	-2.618000000000E-01
	Si94	Si	-3.829000000000E-01	2.000000000002E-04	-2.032000000000E-01
	O95	O	3.261500000000E-01	-3.112000000000E-01	-3.263000000000E-01
	Si96	Si	3.830000000000E-01	-2.342000000000E-01	-2.032000000000E-01
	O97	O	-4.519750000000E-01	1.921000000000E-01	2.244000000000E-01
	Si98	Si	-4.518000000000E-01	4.264000000000E-01	-5.000000000000E-01
	O99	O	4.975000000000E-01	2.679000000000E-01	0.000000000000E+00
	Si100	Si	2.868000000000E-01	-3.300000000000E-01	-5.000000000000E-01
	O101	O	-4.817500000000E-01	3.477000000000E-01	3.263000000000E-01
	Si102	Si	-3.350000000000E-01	-9.640000000000E-02	-5.000000000000E-01
	O103	O	3.660500000000E-01	-2.729000000000E-01	0.000000000000E+00
	Si104	Si	2.868000000000E-01	-9.640000000000E-02	-5.000000000000E-01
	O105	O	4.359000000000E-01	1.282000000000E-01	2.618000000000E-01
	Si106	Si	-4.518000000000E-01	-3.300000000000E-01	-5.000000000000E-01
	O107	O	-3.635500000000E-01	5.000000000000E-03	0.000000000000E+00
	Si108	Si	-3.350000000000E-01	4.264000000000E-01	-5.000000000000E-01


data_ OSI
_chemical_name_common		'OSI'
_cell_length_a		26.69636485
_cell_length_b		13.34818242
_cell_length_c		13.34818242
_cell_angle_alpha		92.231617
_cell_angle_beta		92.231617
_cell_angle_gamma		157.238236
_space group_name_H-M_alt		'P 1'
_space_group_IT_number		1

loop_
	_atom_site_label
	_atom_site_type_symbol
	_atom_site_fract_x
	_atom_site_fract_y
	_atom_site_fract_z
	O1	O	-1.538500000000E-01	-3.077000000000E-01	3.846000000000E-01
	O2	O	-3.461500000000E-01	3.077000000000E-01	-3.846000000000E-01
	O3	O	-3.461500000000E-01	-3.077000000000E-01	6.388883031860E-17
	O4	O	-1.538500000000E-01	3.077000000000E-01	7.586881253890E-18
	O5	O	-3.240000000000E-02	6.480000000000E-02	-5.000000000000E-01
	O6	O	-2.176000000000E-01	4.352000000000E-01	-5.000000000000E-01
	O7	O	3.240000000000E-02	-4.352000000000E-01	1.296000000000E-01
	O8	O	-2.824000000000E-01	-6.480000000000E-02	-1.296000000000E-01
	O9	O	3.240000000000E-02	-6.480000000000E-02	-5.000000000000E-01
	O10	O	-2.824000000000E-01	-4.352000000000E-01	-5.000000000000E-01
	O11	O	-3.240000000000E-02	4.352000000000E-01	-1.296000000000E-01
	O12	O	-2.176000000000E-01	6.480000000000E-02	1.296000000000E-01
	O13	O	-2.142500000000E-01	-2.302000000000E-01	3.413000000000E-01
	O14	O	-2.857500000000E-01	2.302000000000E-01	-3.413000000000E-01
	O15	O	-2.857500000000E-01	-2.302000000000E-01	1.983000000000E-01
	O16	O	-2.142500000000E-01	2.302000000000E-01	-1.983000000000E-01
	O17	O	-3.849000000000E-01	4.285000000000E-01	-3.413000000000E-01
	O18	O	-1.151000000000E-01	-4.285000000000E-01	3.413000000000E-01
	O19	O	-3.849000000000E-01	-4.285000000000E-01	-1.983000000000E-01
	O20	O	-1.151000000000E-01	4.285000000000E-01	1.983000000000E-01
	O21	O	1.250000000000E-01	4.206000000000E-01	1.706000000000E-01
	O22	O	1.250000000000E-01	7.940000000000E-02	-1.706000000000E-01
	O23	O	-1.250000000000E-01	-7.940000000000E-02	1.706000000000E-01
	O24	O	-1.250000000000E-01	-4.206000000000E-01	-1.706000000000E-01
	O25	O	-2.103000000000E-01	-2.500000000000E-01	-1.706000000000E-01
	O26	O	-3.970000000000E-02	-2.500000000000E-01	1.706000000000E-01
	O27	O	3.970000000000E-02	2.500000000000E-01	-1.706000000000E-01
	O28	O	2.103000000000E-01	2.500000000000E-01	1.706000000000E-01
	O29	O	3.555000000000E-02	7.110000000000E-02	1.422000000000E-01
	O30	O	-3.555000000000E-02	-7.110000000000E-02	-1.422000000000E-01
	O31	O	-3.555000000000E-02	7.110000000000E-02	2.426960378474E-17
	O32	O	3.555000000000E-02	-7.110000000000E-02	-2.426960378474E-17
	Si33	Si	-1.707500000000E-01	-2.274000000000E-01	4.311000000000E-01
	Si34	Si	-3.292500000000E-01	2.274000000000E-01	-4.311000000000E-01
	Si35	Si	-3.292500000000E-01	-2.274000000000E-01	1.141000000000E-01
	Si36	Si	-1.707500000000E-01	2.274000000000E-01	-1.141000000000E-01
	Si37	Si	-3.863000000000E-01	3.415000000000E-01	-4.311000000000E-01
	Si38	Si	-1.137000000000E-01	-3.415000000000E-01	4.311000000000E-01
	Si39	Si	-3.863000000000E-01	-3.415000000000E-01	-1.141000000000E-01
	Si40	Si	-1.137000000000E-01	3.415000000000E-01	1.141000000000E-01
	Si41	Si	-1.161415869082E-18	1.209000000000E-01	1.209000000000E-01
	Si42	Si	1.934594233628E-18	-1.209000000000E-01	-1.209000000000E-01
	Si43	Si	-6.045000000000E-02	2.390233203354E-17	-1.209000000000E-01
	Si44	Si	6.045000000000E-02	-2.390233203354E-17	1.209000000000E-01
	Si45	Si	2.500000000000E-01	-2.796000000000E-01	2.204000000000E-01
	Si46	Si	2.500000000000E-01	2.796000000000E-01	-2.204000000000E-01
	Si47	Si	-3.602000000000E-01	-5.000000000000E-01	-2.204000000000E-01
	Si48	Si	-1.398000000000E-01	-5.000000000000E-01	2.204000000000E-01
	O49	O	1.538500000000E-01	3.077000000000E-01	-3.846000000000E-01
	O50	O	2.897000000000E-01	-2.500000000000E-01	-1.706000000000E-01
	O51	O	2.857500000000E-01	-2.302000000000E-01	3.413000000000E-01
	O52	O	4.603000000000E-01	-2.500000000000E-01	1.706000000000E-01
	O53	O	-4.676000000000E-01	-4.352000000000E-01	1.296000000000E-01
	O54	O	-4.603000000000E-01	2.500000000000E-01	-1.706000000000E-01
	O55	O	2.142500000000E-01	2.302000000000E-01	-3.413000000000E-01
	O56	O	-2.897000000000E-01	2.500000000000E-01	1.706000000000E-01
	O57	O	3.461500000000E-01	3.077000000000E-01	-1.565883693850E-16
	O58	O	-4.644500000000E-01	7.110000000000E-02	1.422000000000E-01
	O59	O	2.142500000000E-01	-2.302000000000E-01	1.983000000000E-01
	O60	O	4.644500000000E-01	-7.110000000000E-02	-1.422000000000E-01
	O61	O	2.176000000000E-01	-6.480000000000E-02	-1.296000000000E-01
	O62	O	4.644500000000E-01	7.110000000000E-02	2.687285327455E-17
	O63	O	2.857500000000E-01	2.302000000000E-01	-1.983000000000E-01
	O64	O	-4.644500000000E-01	-7.110000000000E-02	2.392189184694E-17
	O65	O	3.461500000000E-01	-3.077000000000E-01	3.846000000000E-01
	Si66	Si	3.292500000000E-01	-2.274000000000E-01	4.311000000000E-01
	O67	O	1.151000000000E-01	4.285000000000E-01	-3.413000000000E-01
	Si68	Si	1.707500000000E-01	2.274000000000E-01	-4.311000000000E-01
	O69	O	-4.676000000000E-01	-6.480000000000E-02	-5.000000000000E-01
	Si70	Si	1.707500000000E-01	-2.274000000000E-01	1.141000000000E-01
	O71	O	3.849000000000E-01	-4.285000000000E-01	3.413000000000E-01
	Si72	Si	3.292500000000E-01	2.274000000000E-01	-1.141000000000E-01
	O73	O	4.676000000000E-01	6.480000000000E-02	-5.000000000000E-01
	Si74	Si	1.137000000000E-01	3.415000000000E-01	-4.311000000000E-01
	O75	O	1.151000000000E-01	-4.285000000000E-01	-1.983000000000E-01
	Si76	Si	3.863000000000E-01	-3.415000000000E-01	4.311000000000E-01
	O77	O	2.176000000000E-01	-4.352000000000E-01	5.000000000000E-01
	Si78	Si	1.137000000000E-01	-3.415000000000E-01	-1.141000000000E-01
	O79	O	3.849000000000E-01	4.285000000000E-01	1.983000000000E-01
	Si80	Si	3.863000000000E-01	3.415000000000E-01	1.141000000000E-01
	O81	O	1.538500000000E-01	-3.077000000000E-01	1.199164585063E-16
	Si82	Si	5.000000000000E-01	1.209000000000E-01	1.209000000000E-01
	O83	O	-3.750000000000E-01	4.206000000000E-01	1.706000000000E-01
	Si84	Si	5.000000000000E-01	-1.209000000000E-01	-1.209000000000E-01
	O85	O	4.676000000000E-01	4.352000000000E-01	-1.296000000000E-01
	Si86	Si	4.395500000000E-01	6.259035908517E-17	-1.209000000000E-01
	O87	O	-3.750000000000E-01	7.940000000000E-02	-1.706000000000E-01
	Si88	Si	-4.395500000000E-01	9.404324768307E-17	1.209000000000E-01
	O89	O	2.824000000000E-01	4.352000000000E-01	-5.000000000000E-01
	Si90	Si	-2.500000000000E-01	-2.796000000000E-01	2.204000000000E-01
	O91	O	3.750000000000E-01	-7.940000000000E-02	1.706000000000E-01
	Si92	Si	-2.500000000000E-01	2.796000000000E-01	-2.204000000000E-01
	O93	O	2.824000000000E-01	6.480000000000E-02	1.296000000000E-01
	Si94	Si	1.398000000000E-01	-5.000000000000E-01	-2.204000000000E-01
	O95	O	3.750000000000E-01	-4.206000000000E-01	-1.706000000000E-01
	Si96	Si	3.602000000000E-01	5.000000000000E-01	2.204000000000E-01


data_ OSO
_chemical_name_common		'OSO'
_cell_length_a		20.20200000
_cell_length_b		20.20200000
_cell_length_c		7.64700000
_cell_angle_alpha		90.000000
_cell_angle_beta		90.000000
_cell_angle_gamma		120.000000
_space group_name_H-M_alt		'P 1'
_space_group_IT_number		1

loop_
	_atom_site_label
	_atom_site_type_symbol
	_atom_site_fract_x
	_atom_site_fract_y
	_atom_site_fract_z
	O1	O	-1.585500000000E-01	-3.171000000000E-01	-5.000000000000E-01
	O2	O	1.585500000000E-01	3.171000000000E-01	-5.000000000000E-01
	O3	O	3.171000000000E-01	1.585500000000E-01	1.666666666667E-01
	O4	O	-1.585500000000E-01	1.585500000000E-01	-1.666666666667E-01
	O5	O	1.585500000000E-01	-1.585500000000E-01	-1.666666666667E-01
	O6	O	-3.171000000000E-01	-1.585500000000E-01	1.666666666667E-01
	O7	O	2.321500000000E-01	1.785000000000E-01	-2.905000000000E-01
	O8	O	-2.321500000000E-01	-1.785000000000E-01	-2.905000000000E-01
	O9	O	-1.785000000000E-01	5.365000000000E-02	3.761666666667E-01
	O10	O	-5.365000000000E-02	-2.321500000000E-01	4.283333333333E-02
	O11	O	5.365000000000E-02	2.321500000000E-01	4.283333333333E-02
	O12	O	1.785000000000E-01	-5.365000000000E-02	3.761666666667E-01
	O13	O	5.365000000000E-02	-1.785000000000E-01	2.905000000000E-01
	O14	O	-2.321500000000E-01	-5.365000000000E-02	-3.761666666667E-01
	O15	O	1.785000000000E-01	2.321500000000E-01	-4.283333333333E-02
	O16	O	-1.785000000000E-01	-2.321500000000E-01	-4.283333333333E-02
	O17	O	2.321500000000E-01	5.365000000000E-02	-3.761666666667E-01
	O18	O	-5.365000000000E-02	1.785000000000E-01	2.905000000000E-01
	Si19	Si	1.432750000000E-01	2.865500000000E-01	0.000000000000E+00
	Si20	Si	-1.432750000000E-01	-2.865500000000E-01	0.000000000000E+00
	Si21	Si	-2.865500000000E-01	-1.432750000000E-01	-3.333333333333E-01
	Si22	Si	1.432750000000E-01	-1.432750000000E-01	3.333333333333E-01
	Si23	Si	-1.432750000000E-01	1.432750000000E-01	3.333333333333E-01
	Si24	Si	2.865500000000E-01	1.432750000000E-01	-3.333333333333E-01
	Si25	Si	2.500000000000E-01	2.775557561563E-17	-5.000000000000E-01
	Si26	Si	0.000000000000E+00	2.500000000000E-01	1.666666666667E-01
	Si27	Si	2.500000000000E-01	2.500000000000E-01	-1.666666666667E-01
	O28	O	-2.678500000000E-01	-3.215000000000E-01	-2.905000000000E-01
	O29	O	-3.414500000000E-01	-1.829000000000E-01	-5.000000000000E-01
	O30	O	-2.321500000000E-01	3.215000000000E-01	-2.905000000000E-01
	O31	O	2.678500000000E-01	-1.785000000000E-01	-2.905000000000E-01
	O32	O	2.678500000000E-01	3.215000000000E-01	-2.905000000000E-01
	O33	O	3.414500000000E-01	-3.171000000000E-01	-5.000000000000E-01
	O34	O	-1.785000000000E-01	-4.463500000000E-01	3.761666666667E-01
	O35	O	3.215000000000E-01	5.365000000000E-02	3.761666666667E-01
	O36	O	3.215000000000E-01	-4.463500000000E-01	3.761666666667E-01
	O37	O	3.171000000000E-01	-3.414500000000E-01	1.666666666667E-01
	O38	O	-5.365000000000E-02	2.678500000000E-01	4.283333333333E-02
	O39	O	4.463500000000E-01	-2.321500000000E-01	4.283333333333E-02
	O40	O	4.463500000000E-01	2.678500000000E-01	4.283333333333E-02
	O41	O	-1.829000000000E-01	1.585500000000E-01	1.666666666667E-01
	O42	O	5.365000000000E-02	-2.678500000000E-01	4.283333333333E-02
	O43	O	-4.463500000000E-01	2.321500000000E-01	4.283333333333E-02
	O44	O	-4.463500000000E-01	-2.678500000000E-01	4.283333333333E-02
	O45	O	-1.829000000000E-01	-3.414500000000E-01	1.666666666667E-01
	O46	O	1.785000000000E-01	4.463500000000E-01	3.761666666667E-01
	O47	O	-3.215000000000E-01	-5.365000000000E-02	3.761666666667E-01
	O48	O	-3.215000000000E-01	4.463500000000E-01	3.761666666667E-01
	O49	O	3.414500000000E-01	1.829000000000E-01	-5.000000000000E-01
	O50	O	5.365000000000E-02	3.215000000000E-01	2.905000000000E-01
	O51	O	-4.463500000000E-01	-1.785000000000E-01	2.905000000000E-01
	O52	O	-4.463500000000E-01	3.215000000000E-01	2.905000000000E-01
	O53	O	-1.585500000000E-01	-3.414500000000E-01	-1.666666666667E-01
	O54	O	-2.321500000000E-01	4.463500000000E-01	-3.761666666667E-01
	O55	O	2.678500000000E-01	-5.365000000000E-02	-3.761666666667E-01
	O56	O	2.678500000000E-01	4.463500000000E-01	-3.761666666667E-01
	O57	O	3.414500000000E-01	1.585500000000E-01	-1.666666666667E-01
	O58	O	1.785000000000E-01	-2.678500000000E-01	-4.283333333333E-02
	O59	O	-3.215000000000E-01	2.321500000000E-01	-4.283333333333E-02
	O60	O	-3.215000000000E-01	-2.678500000000E-01	-4.283333333333E-02
	O61	O	3.414500000000E-01	-3.414500000000E-01	-1.666666666667E-01
	O62	O	-1.785000000000E-01	2.678500000000E-01	-4.283333333333E-02
	O63	O	3.215000000000E-01	-2.321500000000E-01	-4.283333333333E-02
	O64	O	3.215000000000E-01	2.678500000000E-01	-4.283333333333E-02
	O65	O	-1.585500000000E-01	1.829000000000E-01	-5.000000000000E-01
	O66	O	2.321500000000E-01	-4.463500000000E-01	-3.761666666667E-01
	O67	O	-2.678500000000E-01	5.365000000000E-02	-3.761666666667E-01
	O68	O	-2.678500000000E-01	-4.463500000000E-01	-3.761666666667E-01
	O69	O	1.585500000000E-01	3.414500000000E-01	-1.666666666667E-01
	O70	O	-5.365000000000E-02	-3.215000000000E-01	2.905000000000E-01
	O71	O	4.463500000000E-01	1.785000000000E-01	2.905000000000E-01
	O72	O	4.463500000000E-01	-3.215000000000E-01	2.905000000000E-01
	O73	O	-3.414500000000E-01	-1.585500000000E-01	-1.666666666667E-01
	Si74	Si	1.432750000000E-01	-2.134500000000E-01	0.000000000000E+00
	Si75	Si	-3.567250000000E-01	2.865500000000E-01	0.000000000000E+00
	Si76	Si	-3.567250000000E-01	-2.134500000000E-01	0.000000000000E+00
	O77	O	-3.414500000000E-01	3.414500000000E-01	-1.666666666667E-01
	Si78	Si	-1.432750000000E-01	2.134500000000E-01	0.000000000000E+00
	Si79	Si	3.567250000000E-01	-2.865500000000E-01	0.000000000000E+00
	Si80	Si	3.567250000000E-01	2.134500000000E-01	0.000000000000E+00
	O81	O	1.585500000000E-01	-1.829000000000E-01	-5.000000000000E-01
	Si82	Si	-2.865500000000E-01	3.567250000000E-01	-3.333333333333E-01
	Si83	Si	2.134500000000E-01	-1.432750000000E-01	-3.333333333333E-01
	Si84	Si	2.134500000000E-01	3.567250000000E-01	-3.333333333333E-01
	O85	O	-3.171000000000E-01	3.414500000000E-01	1.666666666667E-01
	Si86	Si	1.432750000000E-01	3.567250000000E-01	3.333333333333E-01
	Si87	Si	-3.567250000000E-01	-1.432750000000E-01	3.333333333333E-01
	Si88	Si	-3.567250000000E-01	3.567250000000E-01	3.333333333333E-01
	O89	O	1.829000000000E-01	-1.585500000000E-01	1.666666666667E-01
	Si90	Si	-1.432750000000E-01	-3.567250000000E-01	3.333333333333E-01
	Si91	Si	3.567250000000E-01	1.432750000000E-01	3.333333333333E-01
	Si92	Si	3.567250000000E-01	-3.567250000000E-01	3.333333333333E-01
	O93	O	1.829000000000E-01	3.414500000000E-01	1.666666666667E-01
	Si94	Si	2.865500000000E-01	-3.567250000000E-01	-3.333333333333E-01
	Si95	Si	-2.134500000000E-01	1.432750000000E-01	-3.333333333333E-01
	Si96	Si	-2.134500000000E-01	-3.567250000000E-01	-3.333333333333E-01
	O97	O	-3.414500000000E-01	3.171000000000E-01	-5.000000000000E-01
	Si98	Si	2.500000000000E-01	-5.000000000000E-01	-5.000000000000E-01
	Si99	Si	-2.500000000000E-01	-6.938893903907E-17	-5.000000000000E-01
	Si100	Si	-2.500000000000E-01	5.000000000000E-01	-5.000000000000E-01
	O101	O	2.321500000000E-01	-3.215000000000E-01	-2.905000000000E-01
	Si102	Si	0.000000000000E+00	-2.500000000000E-01	1.666666666667E-01
	Si103	Si	-5.000000000000E-01	2.500000000000E-01	1.666666666667E-01
	Si104	Si	-5.000000000000E-01	-2.500000000000E-01	1.666666666667E-01
	O105	O	-2.678500000000E-01	1.785000000000E-01	-2.905000000000E-01
	Si106	Si	2.500000000000E-01	-2.500000000000E-01	-1.666666666667E-01
	Si107	Si	-2.500000000000E-01	2.500000000000E-01	-1.666666666667E-01
	Si108	Si	-2.500000000000E-01	-2.500000000000E-01	-1.666666666667E-01


data_ PCR
_chemical_name_common		'PCR'
_cell_length_a		12.28615356
_cell_length_b		12.28615356
_cell_length_c		12.52230000
_cell_angle_alpha		69.214528
_cell_angle_beta		110.785472
_cell_angle_gamma		110.124040
_space group_name_H-M_alt		'P 1'
_space_group_IT_number		1

loop_
	_atom_site_label
	_atom_site_type_symbol
	_atom_site_fract_x
	_atom_site_fract_y
	_atom_site_fract_z
	O1	O	-2.668000000000E-01	7.920000000000E-02	-2.550000000000E-01
	O2	O	7.920000000000E-02	-2.668000000000E-01	2.550000000000E-01
	O3	O	2.668000000000E-01	-7.920000000000E-02	2.550000000000E-01
	O4	O	-7.920000000000E-02	2.668000000000E-01	-2.550000000000E-01
	O5	O	-4.003000000000E-01	-1.379000000000E-01	-2.717000000000E-01
	O6	O	-1.379000000000E-01	-4.003000000000E-01	2.717000000000E-01
	O7	O	4.003000000000E-01	1.379000000000E-01	2.717000000000E-01
	O8	O	1.379000000000E-01	4.003000000000E-01	-2.717000000000E-01
	O9	O	-3.753000000000E-01	-6.270000000000E-02	-9.100000000000E-02
	O10	O	-6.270000000000E-02	-3.753000000000E-01	9.100000000000E-02
	O11	O	3.753000000000E-01	6.270000000000E-02	9.100000000000E-02
	O12	O	6.270000000000E-02	3.753000000000E-01	-9.100000000000E-02
	O13	O	4.976000000000E-01	3.120000000000E-02	-3.019000000000E-01
	O14	O	3.120000000000E-02	4.976000000000E-01	3.019000000000E-01
	O15	O	-4.976000000000E-01	-3.120000000000E-02	3.019000000000E-01
	O16	O	-3.120000000000E-02	-4.976000000000E-01	-3.019000000000E-01
	O17	O	-3.612000000000E-01	-1.476000000000E-01	1.352000000000E-01
	O18	O	-1.476000000000E-01	-3.612000000000E-01	-1.352000000000E-01
	O19	O	3.612000000000E-01	1.476000000000E-01	-1.352000000000E-01
	O20	O	1.476000000000E-01	3.612000000000E-01	1.352000000000E-01
	O21	O	4.902000000000E-01	-3.046000000000E-01	2.578000000000E-01
	O22	O	-3.046000000000E-01	4.902000000000E-01	-2.578000000000E-01
	O23	O	-4.902000000000E-01	3.046000000000E-01	-2.578000000000E-01
	O24	O	3.046000000000E-01	-4.902000000000E-01	2.578000000000E-01
	O25	O	-3.320000000000E-01	-1.448000000000E-01	3.527000000000E-01
	O26	O	-1.448000000000E-01	-3.320000000000E-01	-3.527000000000E-01
	O27	O	3.320000000000E-01	1.448000000000E-01	-3.527000000000E-01
	O28	O	1.448000000000E-01	3.320000000000E-01	3.527000000000E-01
	O29	O	-2.851000000000E-01	-3.185000000000E-01	3.153000000000E-01
	O30	O	-3.185000000000E-01	-2.851000000000E-01	-3.153000000000E-01
	O31	O	2.851000000000E-01	3.185000000000E-01	-3.153000000000E-01
	O32	O	3.185000000000E-01	2.851000000000E-01	3.153000000000E-01
	O33	O	8.120000000000E-02	-2.666000000000E-01	-5.030000000000E-02
	O34	O	-2.666000000000E-01	8.120000000000E-02	5.030000000000E-02
	O35	O	-8.120000000000E-02	2.666000000000E-01	5.030000000000E-02
	O36	O	2.666000000000E-01	-8.120000000000E-02	-5.030000000000E-02
	O37	O	7.415499710105E-17	-5.000000000000E-01	0.000000000000E+00
	O38	O	-5.000000000000E-01	1.864384586980E-17	0.000000000000E+00
	O39	O	8.050000000000E-02	-2.673000000000E-01	-3.555000000000E-01
	O40	O	-2.673000000000E-01	8.050000000000E-02	3.555000000000E-01
	O41	O	-8.050000000000E-02	2.673000000000E-01	3.555000000000E-01
	O42	O	2.673000000000E-01	-8.050000000000E-02	-3.555000000000E-01
	O43	O	-8.870000000000E-02	-3.643000000000E-01	4.797000000000E-01
	O44	O	-3.643000000000E-01	-8.870000000000E-02	-4.797000000000E-01
	O45	O	8.870000000000E-02	3.643000000000E-01	-4.797000000000E-01
	O46	O	3.643000000000E-01	8.870000000000E-02	4.797000000000E-01
	O47	O	-2.718000000000E-01	4.592000000000E-01	4.169000000000E-01
	O48	O	4.592000000000E-01	-2.718000000000E-01	-4.169000000000E-01
	O49	O	2.718000000000E-01	-4.592000000000E-01	-4.169000000000E-01
	O50	O	-4.592000000000E-01	2.718000000000E-01	4.169000000000E-01
	O51	O	-2.944000000000E-01	2.944000000000E-01	3.159000000000E-01
	O52	O	2.944000000000E-01	-2.944000000000E-01	-3.159000000000E-01
	O53	O	-2.433000000000E-01	2.433000000000E-01	1.543000000000E-01
	O54	O	2.433000000000E-01	-2.433000000000E-01	-1.543000000000E-01
	O55	O	2.933000000000E-01	-2.933000000000E-01	2.868000000000E-01
	O56	O	-2.933000000000E-01	2.933000000000E-01	-2.868000000000E-01
	O57	O	2.457000000000E-01	-2.457000000000E-01	4.521000000000E-01
	O58	O	-2.457000000000E-01	2.457000000000E-01	-4.521000000000E-01
	O59	O	2.963000000000E-01	-2.963000000000E-01	7.820000000000E-02
	O60	O	-2.963000000000E-01	2.963000000000E-01	-7.820000000000E-02
	Si61	Si	-3.864000000000E-01	-2.240000000000E-02	-2.308000000000E-01
	Si62	Si	-2.240000000000E-02	-3.864000000000E-01	2.308000000000E-01
	Si63	Si	3.864000000000E-01	2.240000000000E-02	2.308000000000E-01
	Si64	Si	2.240000000000E-02	3.864000000000E-01	-2.308000000000E-01
	Si65	Si	-3.725000000000E-01	-2.295000000000E-01	2.654000000000E-01
	Si66	Si	-2.295000000000E-01	-3.725000000000E-01	-2.654000000000E-01
	Si67	Si	3.725000000000E-01	2.295000000000E-01	-2.654000000000E-01
	Si68	Si	2.295000000000E-01	3.725000000000E-01	2.654000000000E-01
	Si69	Si	-3.230000000000E-02	-3.761000000000E-01	-2.350000000000E-02
	Si70	Si	-3.761000000000E-01	-3.230000000000E-02	2.350000000000E-02
	Si71	Si	3.230000000000E-02	3.761000000000E-01	2.350000000000E-02
	Si72	Si	3.761000000000E-01	3.230000000000E-02	-2.350000000000E-02
	Si73	Si	-4.500000000000E-02	-3.656000000000E-01	-3.826000000000E-01
	Si74	Si	-3.656000000000E-01	-4.500000000000E-02	3.826000000000E-01
	Si75	Si	4.500000000000E-02	3.656000000000E-01	3.826000000000E-01
	Si76	Si	3.656000000000E-01	4.500000000000E-02	-3.826000000000E-01
	Si77	Si	-1.955000000000E-01	-4.059000000000E-01	3.713000000000E-01
	Si78	Si	-4.059000000000E-01	-1.955000000000E-01	-3.713000000000E-01
	Si79	Si	1.955000000000E-01	4.059000000000E-01	-3.713000000000E-01
	Si80	Si	4.059000000000E-01	1.955000000000E-01	3.713000000000E-01
	Si81	Si	-2.212000000000E-01	2.212000000000E-01	2.942000000000E-01
	Si82	Si	2.212000000000E-01	-2.212000000000E-01	-2.942000000000E-01
	Si83	Si	2.213000000000E-01	-2.213000000000E-01	3.114000000000E-01
	Si84	Si	-2.213000000000E-01	2.213000000000E-01	-3.114000000000E-01
	Si85	Si	3.455000000000E-01	-3.455000000000E-01	2.193000000000E-01
	Si86	Si	-3.455000000000E-01	3.455000000000E-01	-2.193000000000E-01
	Si87	Si	2.223000000000E-01	-2.223000000000E-01	-4.410000000000E-02
	Si88	Si	-2.223000000000E-01	2.223000000000E-01	4.410000000000E-02
	Si89	Si	3.181000000000E-01	-3.181000000000E-01	-4.233000000000E-01
	Si90	Si	-3.181000000000E-01	3.181000000000E-01	4.233000000000E-01


data_ PHI
_chemical_name_common		'PHI'
_cell_length_a		8.59663010
_cell_length_b		8.59663010
_cell_length_c		28.09200000
_cell_angle_alpha		90.000000
_cell_angle_beta		90.000000
_cell_angle_gamma		70.230837
_space group_name_H-M_alt		'P 1'
_space_group_IT_number		1

loop_
	_atom_site_label
	_atom_site_type_symbol
	_atom_site_fract_x
	_atom_site_fract_y
	_atom_site_fract_z
	O1	O	1.115000000000E-01	1.115000000000E-01	-2.420000000000E-02
	O2	O	-1.115000000000E-01	-1.115000000000E-01	2.258000000000E-01
	O3	O	-1.115000000000E-01	-1.115000000000E-01	2.420000000000E-02
	O4	O	1.115000000000E-01	1.115000000000E-01	-2.258000000000E-01
	O5	O	3.487000000000E-01	-9.900000000000E-03	3.865000000000E-02
	O6	O	-3.487000000000E-01	9.900000000000E-03	-2.113500000000E-01
	O7	O	9.900000000000E-03	-3.487000000000E-01	-3.865000000000E-02
	O8	O	-9.900000000000E-03	3.487000000000E-01	2.113500000000E-01
	O9	O	-3.487000000000E-01	9.900000000000E-03	-3.865000000000E-02
	O10	O	3.487000000000E-01	-9.900000000000E-03	2.113500000000E-01
	O11	O	-9.900000000000E-03	3.487000000000E-01	3.865000000000E-02
	O12	O	9.900000000000E-03	-3.487000000000E-01	-2.113500000000E-01
	O13	O	2.021000000000E-01	-2.021000000000E-01	0.000000000000E+00
	O14	O	-2.021000000000E-01	2.021000000000E-01	2.500000000000E-01
	O15	O	-2.021000000000E-01	2.021000000000E-01	0.000000000000E+00
	O16	O	2.021000000000E-01	-2.021000000000E-01	2.500000000000E-01
	O17	O	4.000000000000E-01	-9.460000000000E-02	-5.145000000000E-02
	O18	O	-4.000000000000E-01	9.460000000000E-02	1.985500000000E-01
	O19	O	9.460000000000E-02	-4.000000000000E-01	5.145000000000E-02
	O20	O	-9.460000000000E-02	4.000000000000E-01	-1.985500000000E-01
	O21	O	-4.000000000000E-01	9.460000000000E-02	5.145000000000E-02
	O22	O	4.000000000000E-01	-9.460000000000E-02	-1.985500000000E-01
	O23	O	-9.460000000000E-02	4.000000000000E-01	-5.145000000000E-02
	O24	O	9.460000000000E-02	-4.000000000000E-01	1.985500000000E-01
	O25	O	4.299000000000E-01	5.170000000000E-02	1.250000000000E-01
	O26	O	-4.299000000000E-01	-5.170000000000E-02	-1.250000000000E-01
	O27	O	-5.170000000000E-02	-4.299000000000E-01	-1.250000000000E-01
	O28	O	5.170000000000E-02	4.299000000000E-01	1.250000000000E-01
	O29	O	2.966000000000E-01	2.966000000000E-01	6.545000000000E-02
	O30	O	-2.966000000000E-01	-2.966000000000E-01	-1.845500000000E-01
	O31	O	-2.966000000000E-01	-2.966000000000E-01	-6.545000000000E-02
	O32	O	2.966000000000E-01	2.966000000000E-01	1.845500000000E-01
	Si33	Si	2.654000000000E-01	-4.860000000000E-02	-9.200000000000E-03
	Si34	Si	-2.654000000000E-01	4.860000000000E-02	2.408000000000E-01
	Si35	Si	4.860000000000E-02	-2.654000000000E-01	9.200000000000E-03
	Si36	Si	-4.860000000000E-02	2.654000000000E-01	-2.408000000000E-01
	Si37	Si	-2.654000000000E-01	4.860000000000E-02	9.200000000000E-03
	Si38	Si	2.654000000000E-01	-4.860000000000E-02	-2.408000000000E-01
	Si39	Si	-4.860000000000E-02	2.654000000000E-01	-9.200000000000E-03
	Si40	Si	4.860000000000E-02	-2.654000000000E-01	2.408000000000E-01
	Si41	Si	4.188000000000E-01	1.082000000000E-01	7.010000000000E-02
	Si42	Si	-4.188000000000E-01	-1.082000000000E-01	-1.799000000000E-01
	Si43	Si	-1.082000000000E-01	-4.188000000000E-01	-7.010000000000E-02
	Si44	Si	1.082000000000E-01	4.188000000000E-01	1.799000000000E-01
	Si45	Si	-4.188000000000E-01	-1.082000000000E-01	-7.010000000000E-02
	Si46	Si	4.188000000000E-01	1.082000000000E-01	1.799000000000E-01
	Si47	Si	1.082000000000E-01	4.188000000000E-01	7.010000000000E-02
	Si48	Si	-1.082000000000E-01	-4.188000000000E-01	-1.799000000000E-01
	O49	O	-1.115000000000E-01	-1.115000000000E-01	-2.742000000000E-01
	O50	O	4.299000000000E-01	5.170000000000E-02	-3.750000000000E-01
	O51	O	2.021000000000E-01	-2.021000000000E-01	-5.000000000000E-01
	O52	O	-4.299000000000E-01	-5.170000000000E-02	3.750000000000E-01
	O53	O	9.900000000000E-03	-3.487000000000E-01	4.613500000000E-01
	O54	O	-5.170000000000E-02	-4.299000000000E-01	3.750000000000E-01
	O55	O	-2.021000000000E-01	2.021000000000E-01	-2.500000000000E-01
	O56	O	5.170000000000E-02	4.299000000000E-01	-3.750000000000E-01
	O57	O	1.115000000000E-01	1.115000000000E-01	2.742000000000E-01
	O58	O	2.966000000000E-01	2.966000000000E-01	-4.345500000000E-01
	O59	O	-2.021000000000E-01	2.021000000000E-01	-5.000000000000E-01
	O60	O	-2.966000000000E-01	-2.966000000000E-01	3.154500000000E-01
	O61	O	-9.900000000000E-03	3.487000000000E-01	-2.886500000000E-01
	O62	O	-2.966000000000E-01	-2.966000000000E-01	4.345500000000E-01
	O63	O	2.021000000000E-01	-2.021000000000E-01	-2.500000000000E-01
	O64	O	2.966000000000E-01	2.966000000000E-01	-3.154500000000E-01
	O65	O	1.115000000000E-01	1.115000000000E-01	4.758000000000E-01
	Si66	Si	2.654000000000E-01	-4.860000000000E-02	4.908000000000E-01
	O67	O	4.000000000000E-01	-9.460000000000E-02	4.485500000000E-01
	Si68	Si	-2.654000000000E-01	4.860000000000E-02	-2.592000000000E-01
	O69	O	-3.487000000000E-01	9.900000000000E-03	4.613500000000E-01
	Si70	Si	4.860000000000E-02	-2.654000000000E-01	-4.908000000000E-01
	O71	O	-4.000000000000E-01	9.460000000000E-02	-3.014500000000E-01
	Si72	Si	-4.860000000000E-02	2.654000000000E-01	2.592000000000E-01
	O73	O	3.487000000000E-01	-9.900000000000E-03	-4.613500000000E-01
	Si74	Si	-2.654000000000E-01	4.860000000000E-02	-4.908000000000E-01
	O75	O	9.460000000000E-02	-4.000000000000E-01	-4.485500000000E-01
	Si76	Si	2.654000000000E-01	-4.860000000000E-02	2.592000000000E-01
	O77	O	3.487000000000E-01	-9.900000000000E-03	-2.886500000000E-01
	Si78	Si	-4.860000000000E-02	2.654000000000E-01	4.908000000000E-01
	O79	O	-9.460000000000E-02	4.000000000000E-01	3.014500000000E-01
	Si80	Si	4.860000000000E-02	-2.654000000000E-01	-2.592000000000E-01
	O81	O	-1.115000000000E-01	-1.115000000000E-01	-4.758000000000E-01
	Si82	Si	4.188000000000E-01	1.082000000000E-01	-4.299000000000E-01
	O83	O	-4.000000000000E-01	9.460000000000E-02	-4.485500000000E-01
	Si84	Si	-4.188000000000E-01	-1.082000000000E-01	3.201000000000E-01
	O85	O	-9.900000000000E-03	3.487000000000E-01	-4.613500000000E-01
	Si86	Si	-1.082000000000E-01	-4.188000000000E-01	4.299000000000E-01
	O87	O	4.000000000000E-01	-9.460000000000E-02	3.014500000000E-01
	Si88	Si	1.082000000000E-01	4.188000000000E-01	-3.201000000000E-01
	O89	O	-3.487000000000E-01	9.900000000000E-03	2.886500000000E-01
	Si90	Si	-4.188000000000E-01	-1.082000000000E-01	4.299000000000E-01
	O91	O	-9.460000000000E-02	4.000000000000E-01	4.485500000000E-01
	Si92	Si	4.188000000000E-01	1.082000000000E-01	-3.201000000000E-01
	O93	O	9.900000000000E-03	-3.487000000000E-01	2.886500000000E-01
	Si94	Si	1.082000000000E-01	4.188000000000E-01	-4.299000000000E-01
	O95	O	9.460000000000E-02	-4.000000000000E-01	-3.014500000000E-01
	Si96	Si	-1.082000000000E-01	-4.188000000000E-01	3.201000000000E-01


data_ PON
_chemical_name_common		'PON'
_cell_length_a		8.91400000
_cell_length_b		9.20900000
_cell_length_c		16.08700000
_cell_angle_alpha		90.000000
_cell_angle_beta		90.000000
_cell_angle_gamma		90.000000
_space group_name_H-M_alt		'P 1'
_space_group_IT_number		1

loop_
	_atom_site_label
	_atom_site_type_symbol
	_atom_site_fract_x
	_atom_site_fract_y
	_atom_site_fract_z
	O1	O	3.352000000000E-01	-1.443000000000E-01	3.875000000000E-01
	O2	O	-3.352000000000E-01	1.443000000000E-01	-1.125000000000E-01
	O3	O	1.648000000000E-01	-1.443000000000E-01	-1.125000000000E-01
	O4	O	-1.648000000000E-01	1.443000000000E-01	3.875000000000E-01
	O5	O	9.310000000000E-02	-2.545000000000E-01	4.572000000000E-01
	O6	O	-9.310000000000E-02	2.545000000000E-01	-4.280000000000E-02
	O7	O	4.069000000000E-01	-2.545000000000E-01	-4.280000000000E-02
	O8	O	-4.069000000000E-01	2.545000000000E-01	4.572000000000E-01
	O9	O	9.020000000000E-02	-1.870000000000E-01	2.995000000000E-01
	O10	O	-9.020000000000E-02	1.870000000000E-01	-2.005000000000E-01
	O11	O	4.098000000000E-01	-1.870000000000E-01	-2.005000000000E-01
	O12	O	-4.098000000000E-01	1.870000000000E-01	2.995000000000E-01
	O13	O	9.760000000000E-02	1.980000000000E-02	4.127000000000E-01
	O14	O	-9.760000000000E-02	-1.980000000000E-02	-8.730000000000E-02
	O15	O	4.024000000000E-01	1.980000000000E-02	-8.730000000000E-02
	O16	O	-4.024000000000E-01	-1.980000000000E-02	4.127000000000E-01
	O17	O	1.414000000000E-01	3.621000000000E-01	-1.916000000000E-01
	O18	O	-1.414000000000E-01	-3.621000000000E-01	3.084000000000E-01
	O19	O	3.586000000000E-01	3.621000000000E-01	3.084000000000E-01
	O20	O	-3.586000000000E-01	-3.621000000000E-01	-1.916000000000E-01
	O21	O	-1.289000000000E-01	4.663000000000E-01	-2.216000000000E-01
	O22	O	1.289000000000E-01	-4.663000000000E-01	2.784000000000E-01
	O23	O	-3.711000000000E-01	4.663000000000E-01	2.784000000000E-01
	O24	O	3.711000000000E-01	-4.663000000000E-01	-2.216000000000E-01
	O25	O	1.180000000000E-02	3.151000000000E-01	-3.359000000000E-01
	O26	O	-1.180000000000E-02	-3.151000000000E-01	1.641000000000E-01
	O27	O	4.882000000000E-01	3.151000000000E-01	1.641000000000E-01
	O28	O	-4.882000000000E-01	-3.151000000000E-01	-3.359000000000E-01
	O29	O	-1.400000000000E-02	-2.375000000000E-01	6.800000000000E-03
	O30	O	1.400000000000E-02	2.375000000000E-01	-4.932000000000E-01
	O31	O	-4.860000000000E-01	-2.375000000000E-01	-4.932000000000E-01
	O32	O	4.860000000000E-01	2.375000000000E-01	6.800000000000E-03
	O33	O	2.260000000000E-01	-3.594000000000E-01	7.000000000000E-02
	O34	O	-2.260000000000E-01	3.594000000000E-01	-4.300000000000E-01
	O35	O	2.740000000000E-01	-3.594000000000E-01	-4.300000000000E-01
	O36	O	-2.740000000000E-01	3.594000000000E-01	7.000000000000E-02
	O37	O	-1.390000000000E-02	4.845000000000E-01	4.640000000000E-02
	O38	O	1.390000000000E-02	-4.845000000000E-01	-4.536000000000E-01
	O39	O	-4.861000000000E-01	4.845000000000E-01	-4.536000000000E-01
	O40	O	4.861000000000E-01	-4.845000000000E-01	4.640000000000E-02
	O41	O	8.550000000000E-02	2.830000000000E-01	3.511000000000E-01
	O42	O	-8.550000000000E-02	-2.830000000000E-01	-1.489000000000E-01
	O43	O	4.145000000000E-01	2.830000000000E-01	-1.489000000000E-01
	O44	O	-4.145000000000E-01	-2.830000000000E-01	3.511000000000E-01
	O45	O	2.225000000000E-01	4.934000000000E-01	4.320000000000E-01
	O46	O	-2.225000000000E-01	-4.934000000000E-01	-6.800000000000E-02
	O47	O	2.775000000000E-01	4.934000000000E-01	-6.800000000000E-02
	O48	O	-2.775000000000E-01	-4.934000000000E-01	4.320000000000E-01
	Si49	Si	1.548000000000E-01	-1.407000000000E-01	3.892000000000E-01
	Si50	Si	-1.548000000000E-01	1.407000000000E-01	-1.108000000000E-01
	Si51	Si	3.452000000000E-01	-1.407000000000E-01	-1.108000000000E-01
	Si52	Si	-3.452000000000E-01	1.407000000000E-01	3.892000000000E-01
	Si53	Si	4.530000000000E-02	-3.566000000000E-01	7.220000000000E-02
	Si54	Si	-4.530000000000E-02	3.566000000000E-01	-4.278000000000E-01
	Si55	Si	4.547000000000E-01	-3.566000000000E-01	-4.278000000000E-01
	Si56	Si	-4.547000000000E-01	3.566000000000E-01	7.220000000000E-02
	Si57	Si	1.992000000000E-01	4.181000000000E-01	3.426000000000E-01
	Si58	Si	-1.992000000000E-01	-4.181000000000E-01	-1.574000000000E-01
	Si59	Si	3.008000000000E-01	4.181000000000E-01	-1.574000000000E-01
	Si60	Si	-3.008000000000E-01	-4.181000000000E-01	3.426000000000E-01
	Si61	Si	-1.590000000000E-02	3.328000000000E-01	-2.376000000000E-01
	Si62	Si	1.590000000000E-02	-3.328000000000E-01	2.624000000000E-01
	Si63	Si	-4.841000000000E-01	3.328000000000E-01	2.624000000000E-01
	Si64	Si	4.841000000000E-01	-3.328000000000E-01	-2.376000000000E-01
	Si65	Si	1.502000000000E-01	-4.015000000000E-01	-4.988000000000E-01
	Si66	Si	-1.502000000000E-01	4.015000000000E-01	1.200000000000E-03
	Si67	Si	3.498000000000E-01	-4.015000000000E-01	1.200000000000E-03
	Si68	Si	-3.498000000000E-01	4.015000000000E-01	-4.988000000000E-01
	Si69	Si	6.900000000000E-03	1.709000000000E-01	4.144000000000E-01
	Si70	Si	-6.900000000000E-03	-1.709000000000E-01	-8.560000000000E-02
	Si71	Si	4.931000000000E-01	1.709000000000E-01	-8.560000000000E-02
	Si72	Si	-4.931000000000E-01	-1.709000000000E-01	4.144000000000E-01


data_ PUN
_chemical_name_common		'PUN'
_cell_length_a		14.68900000
_cell_length_b		8.64500000
_cell_length_c		18.94100000
_cell_angle_alpha		90.000000
_cell_angle_beta		90.000000
_cell_angle_gamma		90.000000
_space group_name_H-M_alt		'P 1'
_space_group_IT_number		1

loop_
	_atom_site_label
	_atom_site_type_symbol
	_atom_site_fract_x
	_atom_site_fract_y
	_atom_site_fract_z
	O1	O	-4.399000000000E-01	-2.733000000000E-01	-4.083000000000E-01
	O2	O	-6.010000000000E-02	-2.267000000000E-01	9.170000000000E-02
	O3	O	6.010000000000E-02	-2.267000000000E-01	4.083000000000E-01
	O4	O	4.399000000000E-01	-2.733000000000E-01	-9.170000000000E-02
	O5	O	4.399000000000E-01	2.733000000000E-01	4.083000000000E-01
	O6	O	6.010000000000E-02	2.267000000000E-01	-9.170000000000E-02
	O7	O	-6.010000000000E-02	2.267000000000E-01	-4.083000000000E-01
	O8	O	-4.399000000000E-01	2.733000000000E-01	9.170000000000E-02
	O9	O	4.016000000000E-01	-3.931000000000E-01	-4.439000000000E-01
	O10	O	9.840000000000E-02	-1.069000000000E-01	5.610000000000E-02
	O11	O	-9.840000000000E-02	-1.069000000000E-01	4.439000000000E-01
	O12	O	-4.016000000000E-01	-3.931000000000E-01	-5.610000000000E-02
	O13	O	-4.016000000000E-01	3.931000000000E-01	4.439000000000E-01
	O14	O	-9.840000000000E-02	1.069000000000E-01	-5.610000000000E-02
	O15	O	9.840000000000E-02	1.069000000000E-01	-4.439000000000E-01
	O16	O	4.016000000000E-01	3.931000000000E-01	5.610000000000E-02
	O17	O	2.869000000000E-01	-4.937000000000E-01	4.598000000000E-01
	O18	O	2.131000000000E-01	-6.300000000000E-03	-4.020000000000E-02
	O19	O	-2.131000000000E-01	-6.300000000000E-03	-4.598000000000E-01
	O20	O	-2.869000000000E-01	-4.937000000000E-01	4.020000000000E-02
	O21	O	-2.869000000000E-01	4.937000000000E-01	-4.598000000000E-01
	O22	O	-2.131000000000E-01	6.300000000000E-03	4.020000000000E-02
	O23	O	2.131000000000E-01	6.300000000000E-03	4.598000000000E-01
	O24	O	2.869000000000E-01	4.937000000000E-01	-4.020000000000E-02
	O25	O	2.772000000000E-01	3.075000000000E-01	3.545000000000E-01
	O26	O	2.228000000000E-01	1.925000000000E-01	-1.455000000000E-01
	O27	O	-2.228000000000E-01	1.925000000000E-01	-3.545000000000E-01
	O28	O	-2.772000000000E-01	3.075000000000E-01	1.455000000000E-01
	O29	O	-2.772000000000E-01	-3.075000000000E-01	-3.545000000000E-01
	O30	O	-2.228000000000E-01	-1.925000000000E-01	1.455000000000E-01
	O31	O	2.228000000000E-01	-1.925000000000E-01	3.545000000000E-01
	O32	O	2.772000000000E-01	-3.075000000000E-01	-1.455000000000E-01
	O33	O	-4.159000000000E-01	-2.213000000000E-01	-2.747000000000E-01
	O34	O	-8.410000000000E-02	-2.787000000000E-01	2.253000000000E-01
	O35	O	8.410000000000E-02	-2.787000000000E-01	2.747000000000E-01
	O36	O	4.159000000000E-01	-2.213000000000E-01	-2.253000000000E-01
	O37	O	4.159000000000E-01	2.213000000000E-01	2.747000000000E-01
	O38	O	8.410000000000E-02	2.787000000000E-01	-2.253000000000E-01
	O39	O	-8.410000000000E-02	2.787000000000E-01	-2.747000000000E-01
	O40	O	-4.159000000000E-01	2.213000000000E-01	2.253000000000E-01
	O41	O	4.694000000000E-01	-4.344000000000E-01	-3.157000000000E-01
	O42	O	3.060000000000E-02	-6.560000000000E-02	1.843000000000E-01
	O43	O	-3.060000000000E-02	-6.560000000000E-02	3.157000000000E-01
	O44	O	-4.694000000000E-01	-4.344000000000E-01	-1.843000000000E-01
	O45	O	-4.694000000000E-01	4.344000000000E-01	3.157000000000E-01
	O46	O	-3.060000000000E-02	6.560000000000E-02	-1.843000000000E-01
	O47	O	3.060000000000E-02	6.560000000000E-02	-3.157000000000E-01
	O48	O	4.694000000000E-01	4.344000000000E-01	1.843000000000E-01
	O49	O	4.557000000000E-01	-4.268000000000E-01	4.250000000000E-01
	O50	O	4.430000000000E-02	-7.320000000000E-02	-7.500000000000E-02
	O51	O	-4.430000000000E-02	-7.320000000000E-02	-4.250000000000E-01
	O52	O	-4.557000000000E-01	-4.268000000000E-01	7.500000000000E-02
	O53	O	-4.557000000000E-01	4.268000000000E-01	-4.250000000000E-01
	O54	O	-4.430000000000E-02	7.320000000000E-02	7.500000000000E-02
	O55	O	4.430000000000E-02	7.320000000000E-02	4.250000000000E-01
	O56	O	4.557000000000E-01	4.268000000000E-01	-7.500000000000E-02
	O57	O	-3.463000000000E-01	-2.700000000000E-02	-3.677000000000E-01
	O58	O	-1.537000000000E-01	-4.730000000000E-01	1.323000000000E-01
	O59	O	1.537000000000E-01	-4.730000000000E-01	3.677000000000E-01
	O60	O	3.463000000000E-01	-2.700000000000E-02	-1.323000000000E-01
	O61	O	3.463000000000E-01	2.700000000000E-02	3.677000000000E-01
	O62	O	1.537000000000E-01	4.730000000000E-01	-1.323000000000E-01
	O63	O	-1.537000000000E-01	4.730000000000E-01	-3.677000000000E-01
	O64	O	-3.463000000000E-01	2.700000000000E-02	1.323000000000E-01
	O65	O	1.582000000000E-01	2.964000000000E-01	4.579000000000E-01
	O66	O	3.418000000000E-01	2.036000000000E-01	-4.210000000000E-02
	O67	O	-3.418000000000E-01	2.036000000000E-01	-4.579000000000E-01
	O68	O	-1.582000000000E-01	2.964000000000E-01	4.210000000000E-02
	O69	O	-1.582000000000E-01	-2.964000000000E-01	-4.579000000000E-01
	O70	O	-3.418000000000E-01	-2.036000000000E-01	4.210000000000E-02
	O71	O	3.418000000000E-01	-2.036000000000E-01	4.579000000000E-01
	O72	O	1.582000000000E-01	-2.964000000000E-01	-4.210000000000E-02
	Si73	Si	-3.688000000000E-01	-2.054000000000E-01	-3.513000000000E-01
	Si74	Si	-1.312000000000E-01	-2.946000000000E-01	1.487000000000E-01
	Si75	Si	1.312000000000E-01	-2.946000000000E-01	3.513000000000E-01
	Si76	Si	3.688000000000E-01	-2.054000000000E-01	-1.487000000000E-01
	Si77	Si	3.688000000000E-01	2.054000000000E-01	3.513000000000E-01
	Si78	Si	1.312000000000E-01	2.946000000000E-01	-1.487000000000E-01
	Si79	Si	-1.312000000000E-01	2.946000000000E-01	-3.513000000000E-01
	Si80	Si	-3.688000000000E-01	2.054000000000E-01	1.487000000000E-01
	Si81	Si	4.929000000000E-01	-4.192000000000E-01	-3.985000000000E-01
	Si82	Si	7.100000000000E-03	-8.080000000000E-02	1.015000000000E-01
	Si83	Si	-7.100000000000E-03	-8.080000000000E-02	3.985000000000E-01
	Si84	Si	-4.929000000000E-01	-4.192000000000E-01	-1.015000000000E-01
	Si85	Si	-4.929000000000E-01	4.192000000000E-01	3.985000000000E-01
	Si86	Si	-7.100000000000E-03	8.080000000000E-02	-1.015000000000E-01
	Si87	Si	7.100000000000E-03	8.080000000000E-02	-3.985000000000E-01
	Si88	Si	4.929000000000E-01	4.192000000000E-01	1.015000000000E-01
	Si89	Si	2.192000000000E-01	4.094000000000E-01	4.097000000000E-01
	Si90	Si	2.808000000000E-01	9.060000000000E-02	-9.030000000000E-02
	Si91	Si	-2.808000000000E-01	9.060000000000E-02	-4.097000000000E-01
	Si92	Si	-2.192000000000E-01	4.094000000000E-01	9.030000000000E-02
	Si93	Si	-2.192000000000E-01	-4.094000000000E-01	-4.097000000000E-01
	Si94	Si	-2.808000000000E-01	-9.060000000000E-02	9.030000000000E-02
	Si95	Si	2.808000000000E-01	-9.060000000000E-02	4.097000000000E-01
	Si96	Si	2.192000000000E-01	-4.094000000000E-01	-9.030000000000E-02
	Si97	Si	3.711000000000E-01	-3.792000000000E-01	4.746000000000E-01
	Si98	Si	1.289000000000E-01	-1.208000000000E-01	-2.540000000000E-02
	Si99	Si	-1.289000000000E-01	-1.208000000000E-01	-4.746000000000E-01
	Si100	Si	-3.711000000000E-01	-3.792000000000E-01	2.540000000000E-02
	Si101	Si	-3.711000000000E-01	3.792000000000E-01	-4.746000000000E-01
	Si102	Si	-1.289000000000E-01	1.208000000000E-01	2.540000000000E-02
	Si103	Si	1.289000000000E-01	1.208000000000E-01	4.746000000000E-01
	Si104	Si	3.711000000000E-01	3.792000000000E-01	-2.540000000000E-02
	Si105	Si	0.000000000000E+00	-1.720000000000E-01	2.500000000000E-01
	Si106	Si	-5.000000000000E-01	-3.280000000000E-01	-2.500000000000E-01
	Si107	Si	0.000000000000E+00	1.720000000000E-01	-2.500000000000E-01
	Si108	Si	-5.000000000000E-01	3.280000000000E-01	2.500000000000E-01


data_ PWO
_chemical_name_common		'PWO'
_cell_length_a		9.18040000
_cell_length_b		23.34704000
_cell_length_c		10.87849000
_cell_angle_alpha		90.000000
_cell_angle_beta		91.670000
_cell_angle_gamma		90.000000
_space group_name_H-M_alt		'P 1'
_space_group_IT_number		1

loop_
	_atom_site_label
	_atom_site_type_symbol
	_atom_site_fract_x
	_atom_site_fract_y
	_atom_site_fract_z
	Si1	Si	1.536800000000E-01	2.039400000000E-01	2.196900000000E-01
	Si2	Si	-1.536800000000E-01	-4.606000000000E-02	2.803100000000E-01
	Si3	Si	-1.536800000000E-01	-2.039400000000E-01	-2.196900000000E-01
	Si4	Si	1.536800000000E-01	4.606000000000E-02	-2.803100000000E-01
	Si5	Si	8.753000000000E-02	-8.212500000000E-02	4.698800000000E-01
	Si6	Si	-8.753000000000E-02	1.678750000000E-01	3.012000000000E-02
	Si7	Si	-8.753000000000E-02	8.212500000000E-02	-4.698800000000E-01
	Si8	Si	8.753000000000E-02	-1.678750000000E-01	-3.012000000000E-02
	Si9	Si	1.435900000000E-01	8.358000000000E-02	3.229600000000E-01
	Si10	Si	-1.435900000000E-01	-1.664200000000E-01	1.770400000000E-01
	Si11	Si	-1.435900000000E-01	-8.358000000000E-02	-3.229600000000E-01
	Si12	Si	1.435900000000E-01	1.664200000000E-01	-1.770400000000E-01
	Si13	Si	3.268300000000E-01	2.400450000000E-01	-1.510000000000E-03
	Si14	Si	-3.268300000000E-01	-9.955000000000E-03	-4.984900000000E-01
	Si15	Si	-3.268300000000E-01	-2.400450000000E-01	1.510000000000E-03
	Si16	Si	3.268300000000E-01	9.955000000000E-03	4.984900000000E-01
	Si17	Si	3.921000000000E-02	-2.069400000000E-01	3.907000000000E-01
	Si18	Si	-3.921000000000E-02	4.306000000000E-02	1.093000000000E-01
	Si19	Si	-3.921000000000E-02	2.069400000000E-01	-3.907000000000E-01
	Si20	Si	3.921000000000E-02	-4.306000000000E-02	-1.093000000000E-01
	O21	O	1.496700000000E-01	-2.380400000000E-01	2.996400000000E-01
	O22	O	-1.496700000000E-01	1.196000000000E-02	2.003600000000E-01
	O23	O	-1.496700000000E-01	2.380400000000E-01	-2.996400000000E-01
	O24	O	1.496700000000E-01	-1.196000000000E-02	-2.003600000000E-01
	O25	O	9.000000000000E-04	1.955800000000E-01	1.454500000000E-01
	O26	O	-9.000000000000E-04	-5.442000000000E-02	3.545500000000E-01
	O27	O	-9.000000000000E-04	-1.955800000000E-01	-1.454500000000E-01
	O28	O	9.000000000000E-04	5.442000000000E-02	-3.545500000000E-01
	O29	O	1.814200000000E-01	1.506700000000E-01	3.114600000000E-01
	O30	O	-1.814200000000E-01	-9.933000000000E-02	1.885400000000E-01
	O31	O	-1.814200000000E-01	-1.506700000000E-01	-3.114600000000E-01
	O32	O	1.814200000000E-01	9.933000000000E-02	-1.885400000000E-01
	O33	O	2.831300000000E-01	2.081250000000E-01	1.233800000000E-01
	O34	O	-2.831300000000E-01	-4.187500000000E-02	3.766200000000E-01
	O35	O	-2.831300000000E-01	-2.081250000000E-01	-1.233800000000E-01
	O36	O	2.831300000000E-01	4.187500000000E-02	-3.766200000000E-01
	O37	O	-2.424500000000E-01	1.996250000000E-01	1.235000000000E-02
	O38	O	2.424500000000E-01	-5.037500000000E-02	4.876500000000E-01
	O39	O	2.424500000000E-01	-1.996250000000E-01	-1.235000000000E-02
	O40	O	-2.424500000000E-01	5.037500000000E-02	-4.876500000000E-01
	O41	O	4.250000000000E-03	7.467500000000E-02	4.073000000000E-01
	O42	O	-4.250000000000E-03	-1.753250000000E-01	9.270000000000E-02
	O43	O	-4.250000000000E-03	-7.467500000000E-02	-4.073000000000E-01
	O44	O	4.250000000000E-03	1.753250000000E-01	-9.270000000000E-02
	O45	O	1.128000000000E-01	-1.493550000000E-01	4.451000000000E-01
	O46	O	-1.128000000000E-01	1.006450000000E-01	5.490000000000E-02
	O47	O	-1.128000000000E-01	1.493550000000E-01	-4.451000000000E-01
	O48	O	1.128000000000E-01	-1.006450000000E-01	-5.490000000000E-02
	O49	O	2.809800000000E-01	4.970500000000E-02	3.827000000000E-01
	O50	O	-2.809800000000E-01	-2.002950000000E-01	1.173000000000E-01
	O51	O	-2.809800000000E-01	-4.970500000000E-02	-3.827000000000E-01
	O52	O	2.809800000000E-01	2.002950000000E-01	-1.173000000000E-01
	O53	O	1.071900000000E-01	5.898500000000E-02	1.871500000000E-01
	O54	O	-1.071900000000E-01	-1.910150000000E-01	3.128500000000E-01
	O55	O	-1.071900000000E-01	-5.898500000000E-02	-1.871500000000E-01
	O56	O	1.071900000000E-01	1.910150000000E-01	-3.128500000000E-01
	O57	O	-5.000000000000E-01	-4.105814859530E-34	-5.000000000000E-01
	O58	O	-5.000000000000E-01	2.500000000000E-01	0.000000000000E+00
	O59	O	0.000000000000E+00	0.000000000000E+00	0.000000000000E+00
	O60	O	5.090613518393E-18	2.500000000000E-01	-5.000000000000E-01
	Si61	Si	8.753000000000E-02	3.321250000000E-01	-3.012000000000E-02
	O62	O	-1.814200000000E-01	3.493300000000E-01	-3.114600000000E-01
	Si63	Si	3.268300000000E-01	-4.900450000000E-01	4.984900000000E-01
	O64	O	1.814200000000E-01	-4.006700000000E-01	-1.885400000000E-01
	Si65	Si	1.536800000000E-01	-2.960600000000E-01	2.196900000000E-01
	O66	O	2.831300000000E-01	-2.918750000000E-01	1.233800000000E-01
	Si67	Si	3.921000000000E-02	2.930600000000E-01	3.907000000000E-01
	O68	O	-2.831300000000E-01	4.581250000000E-01	3.766200000000E-01
	Si69	Si	1.435900000000E-01	-4.164200000000E-01	3.229600000000E-01
	O70	O	-2.831300000000E-01	2.918750000000E-01	-1.233800000000E-01
	Si71	Si	-3.921000000000E-02	-4.569400000000E-01	1.093000000000E-01
	O72	O	2.831300000000E-01	-4.581250000000E-01	-3.766200000000E-01
	Si73	Si	8.753000000000E-02	4.178750000000E-01	4.698800000000E-01
	O74	O	-2.424500000000E-01	-3.003750000000E-01	1.235000000000E-02
	Si75	Si	-3.921000000000E-02	-2.930600000000E-01	-3.907000000000E-01
	O76	O	2.424500000000E-01	4.496250000000E-01	4.876500000000E-01
	Si77	Si	-1.435900000000E-01	3.335800000000E-01	1.770400000000E-01
	O78	O	2.424500000000E-01	3.003750000000E-01	-1.235000000000E-02
	Si79	Si	3.921000000000E-02	4.569400000000E-01	-1.093000000000E-01
	O80	O	-2.424500000000E-01	-4.496250000000E-01	-4.876500000000E-01
	Si81	Si	-1.536800000000E-01	2.960600000000E-01	-2.196900000000E-01
	O82	O	4.250000000000E-03	-4.253250000000E-01	4.073000000000E-01
	O83	O	1.496700000000E-01	2.619600000000E-01	2.996400000000E-01
	O84	O	-4.250000000000E-03	3.246750000000E-01	9.270000000000E-02
	Si85	Si	-1.435900000000E-01	4.164200000000E-01	-3.229600000000E-01
	O86	O	-4.250000000000E-03	4.253250000000E-01	-4.073000000000E-01
	O87	O	-1.496700000000E-01	-4.880400000000E-01	2.003600000000E-01
	O88	O	4.250000000000E-03	-3.246750000000E-01	-9.270000000000E-02
	Si89	Si	-8.753000000000E-02	-3.321250000000E-01	3.012000000000E-02
	O90	O	1.128000000000E-01	3.506450000000E-01	4.451000000000E-01
	O91	O	-1.496700000000E-01	-2.619600000000E-01	-2.996400000000E-01
	O92	O	-1.128000000000E-01	-3.993550000000E-01	5.490000000000E-02
	Si93	Si	1.435900000000E-01	-3.335800000000E-01	-1.770400000000E-01
	O94	O	-1.128000000000E-01	-3.506450000000E-01	-4.451000000000E-01
	O95	O	1.496700000000E-01	4.880400000000E-01	-2.003600000000E-01
	O96	O	1.128000000000E-01	3.993550000000E-01	-5.490000000000E-02
	Si97	Si	-1.536800000000E-01	4.539400000000E-01	2.803100000000E-01
	O98	O	2.809800000000E-01	-4.502950000000E-01	3.827000000000E-01
	O99	O	9.000000000000E-04	-3.044200000000E-01	1.454500000000E-01
	O100	O	-2.809800000000E-01	2.997050000000E-01	1.173000000000E-01
	Si101	Si	3.268300000000E-01	-2.599550000000E-01	-1.510000000000E-03
	O102	O	-2.809800000000E-01	4.502950000000E-01	-3.827000000000E-01
	O103	O	-9.000000000000E-04	4.455800000000E-01	3.545500000000E-01
	O104	O	2.809800000000E-01	-2.997050000000E-01	-1.173000000000E-01
	Si105	Si	-8.753000000000E-02	-4.178750000000E-01	-4.698800000000E-01
	O106	O	1.071900000000E-01	-4.410150000000E-01	1.871500000000E-01
	O107	O	-9.000000000000E-04	3.044200000000E-01	-1.454500000000E-01
	O108	O	-1.071900000000E-01	3.089850000000E-01	3.128500000000E-01
	Si109	Si	-3.268300000000E-01	4.900450000000E-01	-4.984900000000E-01
	O110	O	-1.071900000000E-01	4.410150000000E-01	-1.871500000000E-01
	O111	O	9.000000000000E-04	-4.455800000000E-01	-3.545500000000E-01
	O112	O	1.071900000000E-01	-3.089850000000E-01	-3.128500000000E-01
	Si113	Si	1.536800000000E-01	-4.539400000000E-01	-2.803100000000E-01
	O114	O	-5.000000000000E-01	-5.000000000000E-01	-5.000000000000E-01
	O115	O	1.814200000000E-01	-3.493300000000E-01	3.114600000000E-01
	O116	O	-5.000000000000E-01	-2.500000000000E-01	0.000000000000E+00
	Si117	Si	-3.268300000000E-01	2.599550000000E-01	1.510000000000E-03
	O118	O	0.000000000000E+00	-5.000000000000E-01	0.000000000000E+00
	O119	O	-1.814200000000E-01	4.006700000000E-01	1.885400000000E-01
	O120	O	1.202950742230E-17	-2.500000000000E-01	-5.000000000000E-01


data_ PWW
_chemical_name_common		'PWW'
_cell_length_a		11.91759949
_cell_length_b		11.91759949
_cell_length_c		22.09222000
_cell_angle_alpha		64.980327
_cell_angle_beta		115.019673
_cell_angle_gamma		121.167156
_space group_name_H-M_alt		'P 1'
_space_group_IT_number		1

loop_
	_atom_site_label
	_atom_site_type_symbol
	_atom_site_fract_x
	_atom_site_fract_y
	_atom_site_fract_z
	Si1	Si	4.905400000000E-01	-1.822400000000E-01	1.835200000000E-01
	Si2	Si	-1.822400000000E-01	4.905400000000E-01	6.648000000000E-02
	Si3	Si	-4.905400000000E-01	1.822400000000E-01	-1.835200000000E-01
	Si4	Si	1.822400000000E-01	-4.905400000000E-01	-6.648000000000E-02
	Si5	Si	2.909500000000E-01	-1.346700000000E-01	2.157400000000E-01
	Si6	Si	-1.346700000000E-01	2.909500000000E-01	3.426000000000E-02
	Si7	Si	-2.909500000000E-01	1.346700000000E-01	-2.157400000000E-01
	Si8	Si	1.346700000000E-01	-2.909500000000E-01	-3.426000000000E-02
	Si9	Si	4.144100000000E-01	-2.404500000000E-01	-1.238250000000E-01
	Si10	Si	-2.404500000000E-01	4.144100000000E-01	-1.261750000000E-01
	Si11	Si	-4.144100000000E-01	2.404500000000E-01	1.238250000000E-01
	Si12	Si	2.404500000000E-01	-4.144100000000E-01	1.261750000000E-01
	Si13	Si	-3.425900000000E-01	-1.721900000000E-01	-1.691000000000E-01
	Si14	Si	-1.721900000000E-01	-3.425900000000E-01	-8.090000000000E-02
	Si15	Si	3.425900000000E-01	1.721900000000E-01	1.691000000000E-01
	Si16	Si	1.721900000000E-01	3.425900000000E-01	8.090000000000E-02
	Si17	Si	5.713000000000E-02	-4.020100000000E-01	1.831050000000E-01
	Si18	Si	-4.020100000000E-01	5.713000000000E-02	6.689500000000E-02
	Si19	Si	-5.713000000000E-02	4.020100000000E-01	-1.831050000000E-01
	Si20	Si	4.020100000000E-01	-5.713000000000E-02	-6.689500000000E-02
	O21	O	3.971900000000E-01	-1.219300000000E-01	1.837950000000E-01
	O22	O	-1.219300000000E-01	3.971900000000E-01	6.620500000000E-02
	O23	O	-3.971900000000E-01	1.219300000000E-01	-1.837950000000E-01
	O24	O	1.219300000000E-01	-3.971900000000E-01	-6.620500000000E-02
	O25	O	3.956000000000E-01	-3.142200000000E-01	1.537150000000E-01
	O26	O	-3.142200000000E-01	3.956000000000E-01	9.628500000000E-02
	O27	O	-3.956000000000E-01	3.142200000000E-01	-1.537150000000E-01
	O28	O	3.142200000000E-01	-3.956000000000E-01	-9.628500000000E-02
	O29	O	-4.210100000000E-01	-2.231700000000E-01	-2.386950000000E-01
	O30	O	-2.231700000000E-01	-4.210100000000E-01	-1.130500000000E-02
	O31	O	4.210100000000E-01	2.231700000000E-01	2.386950000000E-01
	O32	O	2.231700000000E-01	4.210100000000E-01	1.130500000000E-02
	O33	O	-4.086500000000E-01	-6.849000000000E-02	1.352450000000E-01
	O34	O	-6.849000000000E-02	-4.086500000000E-01	1.147550000000E-01
	O35	O	4.086500000000E-01	6.849000000000E-02	-1.352450000000E-01
	O36	O	6.849000000000E-02	4.086500000000E-01	-1.147550000000E-01
	O37	O	3.405600000000E-01	-1.766200000000E-01	2.989600000000E-01
	O38	O	-1.766200000000E-01	3.405600000000E-01	-4.896000000000E-02
	O39	O	-3.405600000000E-01	1.766200000000E-01	-2.989600000000E-01
	O40	O	1.766200000000E-01	-3.405600000000E-01	4.896000000000E-02
	O41	O	2.807900000000E-01	8.850000000000E-03	1.893400000000E-01
	O42	O	8.850000000000E-03	2.807900000000E-01	6.066000000000E-02
	O43	O	-2.807900000000E-01	-8.850000000000E-03	-1.893400000000E-01
	O44	O	-8.850000000000E-03	-2.807900000000E-01	-6.066000000000E-02
	O45	O	1.431600000000E-01	-2.483800000000E-01	1.901850000000E-01
	O46	O	-2.483800000000E-01	1.431600000000E-01	5.981500000000E-02
	O47	O	-1.431600000000E-01	2.483800000000E-01	-1.901850000000E-01
	O48	O	2.483800000000E-01	-1.431600000000E-01	-5.981500000000E-02
	O49	O	-4.479400000000E-01	-2.354000000000E-01	-1.237900000000E-01
	O50	O	-2.354000000000E-01	-4.479400000000E-01	-1.262100000000E-01
	O51	O	4.479400000000E-01	2.354000000000E-01	1.237900000000E-01
	O52	O	2.354000000000E-01	4.479400000000E-01	1.262100000000E-01
	O53	O	4.508900000000E-01	-1.538300000000E-01	-7.339500000000E-02
	O54	O	-1.538300000000E-01	4.508900000000E-01	-1.766050000000E-01
	O55	O	-4.508900000000E-01	1.538300000000E-01	7.339500000000E-02
	O56	O	1.538300000000E-01	-4.508900000000E-01	1.766050000000E-01
	O57	O	-2.206900000000E-01	-2.206900000000E-01	-1.250000000000E-01
	O58	O	2.206900000000E-01	2.206900000000E-01	1.250000000000E-01
	O59	O	5.620171829702E-17	-5.000000000000E-01	2.500000000000E-01
	O60	O	-5.000000000000E-01	-3.827308087128E-18	0.000000000000E+00
	Si61	Si	1.346700000000E-01	-2.909500000000E-01	4.657400000000E-01
	O62	O	4.210100000000E-01	2.231700000000E-01	-2.613050000000E-01
	Si63	Si	1.721900000000E-01	3.425900000000E-01	-4.191000000000E-01
	O64	O	2.231700000000E-01	4.210100000000E-01	-4.886950000000E-01
	Si65	Si	4.905400000000E-01	-1.822400000000E-01	-3.164800000000E-01
	O66	O	-4.086500000000E-01	-6.849000000000E-02	-3.647550000000E-01
	Si67	Si	5.713000000000E-02	-4.020100000000E-01	-3.168950000000E-01
	O68	O	-6.849000000000E-02	-4.086500000000E-01	-3.852450000000E-01
	Si69	Si	4.144100000000E-01	-2.404500000000E-01	3.761750000000E-01
	O70	O	4.086500000000E-01	6.849000000000E-02	3.647550000000E-01
	Si71	Si	-4.020100000000E-01	5.713000000000E-02	-4.331050000000E-01
	O72	O	6.849000000000E-02	4.086500000000E-01	3.852450000000E-01
	Si73	Si	2.909500000000E-01	-1.346700000000E-01	-2.842600000000E-01
	O74	O	3.405600000000E-01	-1.766200000000E-01	-2.010400000000E-01
	Si75	Si	-5.713000000000E-02	4.020100000000E-01	3.168950000000E-01
	O76	O	-1.766200000000E-01	3.405600000000E-01	4.510400000000E-01
	Si77	Si	-2.404500000000E-01	4.144100000000E-01	3.738250000000E-01
	O78	O	-3.405600000000E-01	1.766200000000E-01	2.010400000000E-01
	Si79	Si	4.020100000000E-01	-5.713000000000E-02	4.331050000000E-01
	O80	O	1.766200000000E-01	-3.405600000000E-01	-4.510400000000E-01
	Si81	Si	-4.905400000000E-01	1.822400000000E-01	3.164800000000E-01
	O82	O	2.807900000000E-01	8.850000000000E-03	-3.106600000000E-01
	O83	O	3.971900000000E-01	-1.219300000000E-01	-3.162050000000E-01
	O84	O	8.850000000000E-03	2.807900000000E-01	-4.393400000000E-01
	Si85	Si	-4.144100000000E-01	2.404500000000E-01	-3.761750000000E-01
	O86	O	-2.807900000000E-01	-8.850000000000E-03	3.106600000000E-01
	O87	O	-1.219300000000E-01	3.971900000000E-01	-4.337950000000E-01
	O88	O	-8.850000000000E-03	-2.807900000000E-01	4.393400000000E-01
	Si89	Si	-1.346700000000E-01	2.909500000000E-01	-4.657400000000E-01
	O90	O	1.431600000000E-01	-2.483800000000E-01	-3.098150000000E-01
	O91	O	-3.971900000000E-01	1.219300000000E-01	3.162050000000E-01
	O92	O	-2.483800000000E-01	1.431600000000E-01	-4.401850000000E-01
	Si93	Si	2.404500000000E-01	-4.144100000000E-01	-3.738250000000E-01
	O94	O	-1.431600000000E-01	2.483800000000E-01	3.098150000000E-01
	O95	O	1.219300000000E-01	-3.971900000000E-01	4.337950000000E-01
	O96	O	2.483800000000E-01	-1.431600000000E-01	4.401850000000E-01
	Si97	Si	-1.822400000000E-01	4.905400000000E-01	-4.335200000000E-01
	O98	O	-4.479400000000E-01	-2.354000000000E-01	3.762100000000E-01
	O99	O	3.956000000000E-01	-3.142200000000E-01	-3.462850000000E-01
	O100	O	-2.354000000000E-01	-4.479400000000E-01	3.737900000000E-01
	Si101	Si	-3.425900000000E-01	-1.721900000000E-01	3.309000000000E-01
	O102	O	4.479400000000E-01	2.354000000000E-01	-3.762100000000E-01
	O103	O	-3.142200000000E-01	3.956000000000E-01	-4.037150000000E-01
	O104	O	2.354000000000E-01	4.479400000000E-01	-3.737900000000E-01
	Si105	Si	-2.909500000000E-01	1.346700000000E-01	2.842600000000E-01
	O106	O	4.508900000000E-01	-1.538300000000E-01	4.266050000000E-01
	O107	O	-3.956000000000E-01	3.142200000000E-01	3.462850000000E-01
	O108	O	-1.538300000000E-01	4.508900000000E-01	3.233950000000E-01
	Si109	Si	-1.721900000000E-01	-3.425900000000E-01	4.191000000000E-01
	O110	O	-4.508900000000E-01	1.538300000000E-01	-4.266050000000E-01
	O111	O	3.142200000000E-01	-3.956000000000E-01	4.037150000000E-01
	O112	O	1.538300000000E-01	-4.508900000000E-01	-3.233950000000E-01
	Si113	Si	1.822400000000E-01	-4.905400000000E-01	4.335200000000E-01
	O114	O	-2.206900000000E-01	-2.206900000000E-01	3.750000000000E-01
	O115	O	-4.210100000000E-01	-2.231700000000E-01	2.613050000000E-01
	O116	O	2.206900000000E-01	2.206900000000E-01	-3.750000000000E-01
	Si117	Si	3.425900000000E-01	1.721900000000E-01	-3.309000000000E-01
	O118	O	8.518684846676E-17	-5.000000000000E-01	-2.500000000000E-01
	O119	O	-2.231700000000E-01	-4.210100000000E-01	4.886950000000E-01
	O120	O	-5.000000000000E-01	-8.551797785112E-17	-5.000000000000E-01


data_ RHO
_chemical_name_common		'RHO'
_cell_length_a		12.92023300
_cell_length_b		12.92023300
_cell_length_c		12.92023300
_cell_angle_alpha		109.471221
_cell_angle_beta		109.471221
_cell_angle_gamma		109.471221
_space group_name_H-M_alt		'P 1'
_space_group_IT_number		1

loop_
	_atom_site_label
	_atom_site_type_symbol
	_atom_site_fract_x
	_atom_site_fract_y
	_atom_site_fract_z
	O1	O	4.642000000000E-01	-3.312000000000E-01	4.642000000000E-01
	O2	O	2.046000000000E-01	5.876512955052E-17	-4.642000000000E-01
	O3	O	-4.642000000000E-01	1.923479867637E-17	2.046000000000E-01
	O4	O	-2.046000000000E-01	3.312000000000E-01	-2.046000000000E-01
	O5	O	4.642000000000E-01	4.642000000000E-01	-3.312000000000E-01
	O6	O	-3.312000000000E-01	4.642000000000E-01	4.642000000000E-01
	O7	O	-2.046000000000E-01	-2.046000000000E-01	3.312000000000E-01
	O8	O	1.173853967783E-17	-4.642000000000E-01	2.046000000000E-01
	O9	O	-4.642000000000E-01	2.046000000000E-01	1.173853967783E-17
	O10	O	-1.173853967783E-17	2.046000000000E-01	-4.642000000000E-01
	O11	O	2.046000000000E-01	-4.642000000000E-01	-1.173853967783E-17
	O12	O	3.312000000000E-01	-2.046000000000E-01	-2.046000000000E-01
	O13	O	3.312000000000E-01	-4.642000000000E-01	-4.642000000000E-01
	O14	O	6.724969090909E-17	-2.046000000000E-01	4.642000000000E-01
	O15	O	-7.474594990763E-17	4.642000000000E-01	-2.046000000000E-01
	O16	O	-3.312000000000E-01	2.046000000000E-01	2.046000000000E-01
	O17	O	-4.642000000000E-01	-4.642000000000E-01	3.312000000000E-01
	O18	O	-4.642000000000E-01	3.312000000000E-01	-4.642000000000E-01
	O19	O	2.046000000000E-01	2.046000000000E-01	-3.312000000000E-01
	O20	O	4.642000000000E-01	-1.923479867637E-17	-2.046000000000E-01
	O21	O	-2.046000000000E-01	4.642000000000E-01	1.227608421403E-16
	O22	O	-2.046000000000E-01	-5.876512955052E-17	4.642000000000E-01
	O23	O	4.642000000000E-01	-2.046000000000E-01	-1.173853967783E-17
	O24	O	2.046000000000E-01	-3.312000000000E-01	2.046000000000E-01
	O25	O	-3.807000000000E-01	-2.246000000000E-01	3.947000000000E-01
	O26	O	3.807000000000E-01	2.246000000000E-01	-3.947000000000E-01
	O27	O	3.807000000000E-01	-2.246000000000E-01	1.561000000000E-01
	O28	O	-3.807000000000E-01	2.246000000000E-01	-1.561000000000E-01
	O29	O	3.947000000000E-01	-3.807000000000E-01	-2.246000000000E-01
	O30	O	-2.246000000000E-01	3.947000000000E-01	-3.807000000000E-01
	O31	O	-1.561000000000E-01	-3.807000000000E-01	2.246000000000E-01
	O32	O	2.246000000000E-01	-3.947000000000E-01	3.807000000000E-01
	O33	O	-3.947000000000E-01	3.807000000000E-01	2.246000000000E-01
	O34	O	-2.246000000000E-01	1.561000000000E-01	3.807000000000E-01
	O35	O	1.561000000000E-01	3.807000000000E-01	-2.246000000000E-01
	O36	O	2.246000000000E-01	-1.561000000000E-01	-3.807000000000E-01
	O37	O	2.246000000000E-01	3.807000000000E-01	-3.947000000000E-01
	O38	O	-2.246000000000E-01	-3.807000000000E-01	3.947000000000E-01
	O39	O	2.246000000000E-01	-3.807000000000E-01	-1.561000000000E-01
	O40	O	-2.246000000000E-01	3.807000000000E-01	1.561000000000E-01
	O41	O	3.807000000000E-01	-3.947000000000E-01	2.246000000000E-01
	O42	O	-3.947000000000E-01	2.246000000000E-01	3.807000000000E-01
	O43	O	3.807000000000E-01	1.561000000000E-01	-2.246000000000E-01
	O44	O	3.947000000000E-01	-2.246000000000E-01	-3.807000000000E-01
	O45	O	-3.807000000000E-01	3.947000000000E-01	-2.246000000000E-01
	O46	O	-1.561000000000E-01	2.246000000000E-01	-3.807000000000E-01
	O47	O	-3.807000000000E-01	-1.561000000000E-01	2.246000000000E-01
	O48	O	1.561000000000E-01	-2.246000000000E-01	3.807000000000E-01
	Si49	Si	-5.000000000000E-01	-3.537000000000E-01	3.537000000000E-01
	Si50	Si	2.926000000000E-01	1.463000000000E-01	-3.537000000000E-01
	Si51	Si	-5.000000000000E-01	-1.463000000000E-01	1.463000000000E-01
	Si52	Si	-2.926000000000E-01	3.537000000000E-01	-1.463000000000E-01
	Si53	Si	3.537000000000E-01	-5.000000000000E-01	-3.537000000000E-01
	Si54	Si	-3.537000000000E-01	3.537000000000E-01	-5.000000000000E-01
	Si55	Si	-1.463000000000E-01	-2.926000000000E-01	3.537000000000E-01
	Si56	Si	1.463000000000E-01	-3.537000000000E-01	2.926000000000E-01
	Si57	Si	-3.537000000000E-01	2.926000000000E-01	1.463000000000E-01
	Si58	Si	-1.463000000000E-01	1.463000000000E-01	-5.000000000000E-01
	Si59	Si	1.463000000000E-01	-5.000000000000E-01	-1.463000000000E-01
	Si60	Si	3.537000000000E-01	-1.463000000000E-01	-2.926000000000E-01
	Si61	Si	-5.000000000000E-01	3.537000000000E-01	-3.537000000000E-01
	Si62	Si	-2.926000000000E-01	-1.463000000000E-01	3.537000000000E-01
	Si63	Si	-5.000000000000E-01	1.463000000000E-01	-1.463000000000E-01
	Si64	Si	2.926000000000E-01	-3.537000000000E-01	1.463000000000E-01
	Si65	Si	-3.537000000000E-01	-5.000000000000E-01	3.537000000000E-01
	Si66	Si	3.537000000000E-01	-3.537000000000E-01	-5.000000000000E-01
	Si67	Si	1.463000000000E-01	2.926000000000E-01	-3.537000000000E-01
	Si68	Si	-1.463000000000E-01	3.537000000000E-01	-2.926000000000E-01
	Si69	Si	3.537000000000E-01	-2.926000000000E-01	-1.463000000000E-01
	Si70	Si	1.463000000000E-01	-1.463000000000E-01	-5.000000000000E-01
	Si71	Si	-1.463000000000E-01	-5.000000000000E-01	1.463000000000E-01
	Si72	Si	-3.537000000000E-01	1.463000000000E-01	2.926000000000E-01


data_ RRO
_chemical_name_common		'RRO'
_cell_length_a		7.41200000
_cell_length_b		8.64100000
_cell_length_c		34.36000000
_cell_angle_alpha		90.000000
_cell_angle_beta		113.678000
_cell_angle_gamma		90.000000
_space group_name_H-M_alt		'P 1'
_space_group_IT_number		1

loop_
	_atom_site_label
	_atom_site_type_symbol
	_atom_site_fract_x
	_atom_site_fract_y
	_atom_site_fract_z
	O1	O	1.272000000000E-01	-2.861000000000E-01	9.900000000000E-03
	O2	O	-1.272000000000E-01	-2.861000000000E-01	2.401000000000E-01
	O3	O	-1.272000000000E-01	2.861000000000E-01	-9.900000000000E-03
	O4	O	1.272000000000E-01	2.861000000000E-01	-2.401000000000E-01
	O5	O	0.000000000000E+00	0.000000000000E+00	0.000000000000E+00
	O6	O	1.476507017615E-16	-5.617615199826E-33	2.500000000000E-01
	O7	O	-1.672000000000E-01	-2.073000000000E-01	2.990000000000E-02
	O8	O	1.672000000000E-01	-2.073000000000E-01	2.201000000000E-01
	O9	O	1.672000000000E-01	2.073000000000E-01	-2.990000000000E-02
	O10	O	-1.672000000000E-01	2.073000000000E-01	-2.201000000000E-01
	O11	O	-2.186000000000E-01	-2.210000000000E-01	-5.040000000000E-02
	O12	O	2.186000000000E-01	-2.210000000000E-01	-1.996000000000E-01
	O13	O	2.186000000000E-01	2.210000000000E-01	5.040000000000E-02
	O14	O	-2.186000000000E-01	2.210000000000E-01	1.996000000000E-01
	O15	O	-3.171000000000E-01	-4.820000000000E-01	6.100000000000E-03
	O16	O	3.171000000000E-01	-4.820000000000E-01	2.439000000000E-01
	O17	O	3.171000000000E-01	4.820000000000E-01	-6.100000000000E-03
	O18	O	-3.171000000000E-01	4.820000000000E-01	-2.439000000000E-01
	O19	O	4.834000000000E-01	2.945000000000E-01	-4.215000000000E-02
	O20	O	-4.834000000000E-01	2.945000000000E-01	-2.078500000000E-01
	O21	O	-4.834000000000E-01	-2.945000000000E-01	4.215000000000E-02
	O22	O	4.834000000000E-01	-2.945000000000E-01	2.078500000000E-01
	O23	O	-3.204000000000E-01	4.881000000000E-01	-7.010000000000E-02
	O24	O	3.204000000000E-01	4.881000000000E-01	-1.799000000000E-01
	O25	O	3.204000000000E-01	-4.881000000000E-01	7.010000000000E-02
	O26	O	-3.204000000000E-01	-4.881000000000E-01	1.799000000000E-01
	O27	O	1.313000000000E-01	-3.620000000000E-01	-1.416500000000E-01
	O28	O	-1.313000000000E-01	-3.620000000000E-01	-1.083500000000E-01
	O29	O	-1.313000000000E-01	3.620000000000E-01	1.416500000000E-01
	O30	O	1.313000000000E-01	3.620000000000E-01	1.083500000000E-01
	O31	O	5.000000000000E-01	-2.923000000000E-01	-1.250000000000E-01
	O32	O	-5.000000000000E-01	2.923000000000E-01	1.250000000000E-01
	O33	O	1.412000000000E-01	4.209000000000E-01	-8.710000000000E-02
	O34	O	-1.412000000000E-01	4.209000000000E-01	-1.629000000000E-01
	O35	O	-1.412000000000E-01	-4.209000000000E-01	8.710000000000E-02
	O36	O	1.412000000000E-01	-4.209000000000E-01	1.629000000000E-01
	Si37	Si	-6.520000000000E-02	-1.784000000000E-01	-3.000000000000E-03
	Si38	Si	6.520000000000E-02	-1.784000000000E-01	2.530000000000E-01
	Si39	Si	6.520000000000E-02	1.784000000000E-01	3.000000000000E-03
	Si40	Si	-6.520000000000E-02	1.784000000000E-01	-2.530000000000E-01
	Si41	Si	-3.181000000000E-01	3.955000000000E-01	-2.925000000000E-02
	Si42	Si	3.181000000000E-01	3.955000000000E-01	-2.207500000000E-01
	Si43	Si	3.181000000000E-01	-3.955000000000E-01	2.925000000000E-02
	Si44	Si	-3.181000000000E-01	-3.955000000000E-01	2.207500000000E-01
	Si45	Si	2.934000000000E-01	-3.460000000000E-01	-1.616000000000E-01
	Si46	Si	-2.934000000000E-01	-3.460000000000E-01	-8.840000000000E-02
	Si47	Si	-2.934000000000E-01	3.460000000000E-01	1.616000000000E-01
	Si48	Si	2.934000000000E-01	3.460000000000E-01	8.840000000000E-02
	Si49	Si	2.769000000000E-01	3.495000000000E-01	-4.145000000000E-02
	Si50	Si	-2.769000000000E-01	3.495000000000E-01	-2.085500000000E-01
	Si51	Si	-2.769000000000E-01	-3.495000000000E-01	4.145000000000E-02
	Si52	Si	2.769000000000E-01	-3.495000000000E-01	2.085500000000E-01
	Si53	Si	7.382535088074E-17	4.698000000000E-01	1.250000000000E-01
	Si54	Si	-1.570920777276E-16	-4.698000000000E-01	-1.250000000000E-01
	O55	O	-2.186000000000E-01	2.210000000000E-01	-3.004000000000E-01
	O56	O	-1.313000000000E-01	-3.620000000000E-01	3.916500000000E-01
	O57	O	1.272000000000E-01	2.861000000000E-01	2.599000000000E-01
	O58	O	-1.313000000000E-01	3.620000000000E-01	-3.583500000000E-01
	O59	O	-3.171000000000E-01	-4.820000000000E-01	-4.939000000000E-01
	O60	O	1.313000000000E-01	3.620000000000E-01	-3.916500000000E-01
	O61	O	1.672000000000E-01	-2.073000000000E-01	-2.799000000000E-01
	O62	O	-5.000000000000E-01	-2.923000000000E-01	3.750000000000E-01
	O63	O	3.171000000000E-01	-4.820000000000E-01	-2.561000000000E-01
	O64	O	5.000000000000E-01	2.923000000000E-01	-3.750000000000E-01
	O65	O	1.272000000000E-01	-2.861000000000E-01	-4.901000000000E-01
	O66	O	1.412000000000E-01	4.209000000000E-01	4.129000000000E-01
	O67	O	3.171000000000E-01	4.820000000000E-01	4.939000000000E-01
	O68	O	-1.412000000000E-01	4.209000000000E-01	3.371000000000E-01
	O69	O	1.672000000000E-01	2.073000000000E-01	4.701000000000E-01
	O70	O	-1.412000000000E-01	-4.209000000000E-01	-4.129000000000E-01
	O71	O	-3.171000000000E-01	4.820000000000E-01	2.561000000000E-01
	O72	O	1.412000000000E-01	-4.209000000000E-01	-3.371000000000E-01
	O73	O	1.842791010604E-16	-3.588713368781E-32	-5.000000000000E-01
	Si74	Si	-6.520000000000E-02	-1.784000000000E-01	4.970000000000E-01
	O75	O	4.834000000000E-01	2.945000000000E-01	4.578500000000E-01
	Si76	Si	6.520000000000E-02	-1.784000000000E-01	-2.470000000000E-01
	O77	O	-1.672000000000E-01	2.073000000000E-01	2.799000000000E-01
	Si78	Si	6.520000000000E-02	1.784000000000E-01	-4.970000000000E-01
	O79	O	-4.834000000000E-01	2.945000000000E-01	2.921500000000E-01
	Si80	Si	-6.520000000000E-02	1.784000000000E-01	2.470000000000E-01
	O81	O	-1.272000000000E-01	2.861000000000E-01	4.901000000000E-01
	Si82	Si	-3.181000000000E-01	3.955000000000E-01	4.707500000000E-01
	O83	O	-4.834000000000E-01	-2.945000000000E-01	-4.578500000000E-01
	Si84	Si	3.181000000000E-01	3.955000000000E-01	2.792500000000E-01
	O85	O	-2.186000000000E-01	-2.210000000000E-01	4.496000000000E-01
	Si86	Si	3.181000000000E-01	-3.955000000000E-01	-4.707500000000E-01
	O87	O	4.834000000000E-01	-2.945000000000E-01	-2.921500000000E-01
	Si88	Si	-3.181000000000E-01	-3.955000000000E-01	-2.792500000000E-01
	O89	O	-1.476507017615E-16	1.794356684390E-32	-2.500000000000E-01
	Si90	Si	2.934000000000E-01	-3.460000000000E-01	3.384000000000E-01
	O91	O	-3.204000000000E-01	4.881000000000E-01	4.299000000000E-01
	Si92	Si	-2.934000000000E-01	-3.460000000000E-01	4.116000000000E-01
	O93	O	2.186000000000E-01	-2.210000000000E-01	3.004000000000E-01
	Si94	Si	-2.934000000000E-01	3.460000000000E-01	-3.384000000000E-01
	O95	O	3.204000000000E-01	4.881000000000E-01	3.201000000000E-01
	Si96	Si	2.934000000000E-01	3.460000000000E-01	-4.116000000000E-01
	O97	O	-1.272000000000E-01	-2.861000000000E-01	-2.599000000000E-01
	Si98	Si	2.769000000000E-01	3.495000000000E-01	4.585500000000E-01
	O99	O	3.204000000000E-01	-4.881000000000E-01	-4.299000000000E-01
	Si100	Si	-2.769000000000E-01	3.495000000000E-01	2.914500000000E-01
	O101	O	2.186000000000E-01	2.210000000000E-01	-4.496000000000E-01
	Si102	Si	-2.769000000000E-01	-3.495000000000E-01	-4.585500000000E-01
	O103	O	-3.204000000000E-01	-4.881000000000E-01	-3.201000000000E-01
	Si104	Si	2.769000000000E-01	-3.495000000000E-01	-2.914500000000E-01
	O105	O	-1.672000000000E-01	-2.073000000000E-01	-4.701000000000E-01
	Si106	Si	5.643640842744E-17	4.698000000000E-01	-3.750000000000E-01
	O107	O	1.313000000000E-01	-3.620000000000E-01	3.583500000000E-01
	Si108	Si	1.660158592557E-16	-4.698000000000E-01	3.750000000000E-01


data_ RSN
_chemical_name_common		'RSN'
_cell_length_a		21.21678758
_cell_length_b		42.43357516
_cell_length_c		7.15800000
_cell_angle_alpha		89.999494
_cell_angle_beta		90.000506
_cell_angle_gamma		19.414776
_space group_name_H-M_alt		'P 1'
_space_group_IT_number		1

loop_
	_atom_site_label
	_atom_site_type_symbol
	_atom_site_fract_x
	_atom_site_fract_y
	_atom_site_fract_z
	O1	O	-8.090000000000E-02	1.431500000000E-01	0.000000000000E+00
	O2	O	2.863000000000E-01	-4.045000000000E-02	0.000000000000E+00
	O3	O	8.090000000000E-02	-1.431500000000E-01	0.000000000000E+00
	O4	O	-2.863000000000E-01	4.045000000000E-02	0.000000000000E+00
	O5	O	-2.634000000000E-01	1.849000000000E-01	1.844000000000E-01
	O6	O	3.698000000000E-01	-1.317000000000E-01	-1.844000000000E-01
	O7	O	2.634000000000E-01	-1.849000000000E-01	-1.844000000000E-01
	O8	O	-3.698000000000E-01	1.317000000000E-01	1.844000000000E-01
	O9	O	4.860000000000E-02	2.430000000000E-02	0.000000000000E+00
	O10	O	-4.860000000000E-02	-2.430000000000E-02	0.000000000000E+00
	O11	O	-2.635000000000E-01	1.849500000000E-01	-1.843000000000E-01
	O12	O	3.699000000000E-01	-1.317500000000E-01	1.843000000000E-01
	O13	O	2.635000000000E-01	-1.849500000000E-01	1.843000000000E-01
	O14	O	-3.699000000000E-01	1.317500000000E-01	-1.843000000000E-01
	O15	O	-4.537000000000E-01	2.731500000000E-01	-5.000000000000E-01
	O16	O	4.537000000000E-01	2.268500000000E-01	-5.000000000000E-01
	O17	O	-4.999000000000E-01	2.499500000000E-01	2.510000000000E-01
	O18	O	4.999000000000E-01	-2.499500000000E-01	-2.510000000000E-01
	O19	O	1.473000000000E-01	7.365000000000E-02	1.835000000000E-01
	O20	O	1.473000000000E-01	7.365000000000E-02	-1.835000000000E-01
	O21	O	-1.473000000000E-01	-7.365000000000E-02	-1.835000000000E-01
	O22	O	-1.473000000000E-01	-7.365000000000E-02	1.835000000000E-01
	O23	O	1.240000000000E-02	1.906000000000E-01	3.167000000000E-01
	O24	O	3.812000000000E-01	6.200000000000E-03	-3.167000000000E-01
	O25	O	-1.240000000000E-02	-1.906000000000E-01	-3.167000000000E-01
	O26	O	-3.812000000000E-01	-6.200000000000E-03	3.167000000000E-01
	O27	O	2.014000000000E-01	1.007000000000E-01	0.000000000000E+00
	O28	O	-2.014000000000E-01	-1.007000000000E-01	0.000000000000E+00
	O29	O	3.811000000000E-01	6.250000000000E-03	3.167000000000E-01
	O30	O	1.250000000000E-02	1.905500000000E-01	-3.167000000000E-01
	O31	O	-3.811000000000E-01	-6.250000000000E-03	-3.167000000000E-01
	O32	O	-1.250000000000E-02	-1.905500000000E-01	3.167000000000E-01
	O33	O	-2.962000000000E-01	3.519000000000E-01	-5.000000000000E-01
	O34	O	2.962000000000E-01	1.481000000000E-01	-5.000000000000E-01
	O35	O	5.000000000000E-01	4.619988449867E-17	-5.000000000000E-01
	O36	O	-1.056999906596E-16	2.500000000000E-01	-5.000000000000E-01
	Si37	Si	-1.414000000000E-01	1.350000000000E-01	0.000000000000E+00
	Si38	Si	2.700000000000E-01	-7.070000000000E-02	0.000000000000E+00
	Si39	Si	1.414000000000E-01	-1.350000000000E-01	0.000000000000E+00
	Si40	Si	-2.700000000000E-01	7.070000000000E-02	0.000000000000E+00
	Si41	Si	-4.619000000000E-01	-2.309500000000E-01	2.804000000000E-01
	Si42	Si	-4.619000000000E-01	2.690500000000E-01	-2.804000000000E-01
	Si43	Si	4.619000000000E-01	2.309500000000E-01	-2.804000000000E-01
	Si44	Si	4.619000000000E-01	-2.690500000000E-01	2.804000000000E-01
	Si45	Si	1.857000000000E-01	9.285000000000E-02	2.057000000000E-01
	Si46	Si	1.857000000000E-01	9.285000000000E-02	-2.057000000000E-01
	Si47	Si	-1.857000000000E-01	-9.285000000000E-02	-2.057000000000E-01
	Si48	Si	-1.857000000000E-01	-9.285000000000E-02	2.057000000000E-01
	Si49	Si	4.920000000000E-01	-3.410000000000E-02	-5.000000000000E-01
	Si50	Si	-6.820000000000E-02	2.460000000000E-01	-5.000000000000E-01
	Si51	Si	-4.920000000000E-01	3.410000000000E-02	-5.000000000000E-01
	Si52	Si	6.820000000000E-02	-2.460000000000E-01	-5.000000000000E-01
	Si53	Si	1.250000000000E-01	6.250000000000E-02	0.000000000000E+00
	Si54	Si	-1.250000000000E-01	-6.250000000000E-02	0.000000000000E+00
	O55	O	-3.699000000000E-01	-3.682500000000E-01	-1.843000000000E-01
	O56	O	-2.014000000000E-01	3.993000000000E-01	0.000000000000E+00
	O57	O	-2.863000000000E-01	-4.595500000000E-01	0.000000000000E+00
	O58	O	3.811000000000E-01	-4.937500000000E-01	3.167000000000E-01
	O59	O	-4.537000000000E-01	-2.268500000000E-01	-5.000000000000E-01
	O60	O	1.250000000000E-02	-3.094500000000E-01	-3.167000000000E-01
	O61	O	-3.698000000000E-01	-3.683000000000E-01	1.844000000000E-01
	O62	O	-3.811000000000E-01	4.937500000000E-01	-3.167000000000E-01
	O63	O	4.537000000000E-01	-2.731500000000E-01	-5.000000000000E-01
	O64	O	-1.250000000000E-02	3.094500000000E-01	3.167000000000E-01
	O65	O	-8.090000000000E-02	-3.568500000000E-01	0.000000000000E+00
	O66	O	-2.962000000000E-01	-1.481000000000E-01	-5.000000000000E-01
	O67	O	-4.999000000000E-01	-2.500500000000E-01	2.510000000000E-01
	O68	O	2.962000000000E-01	-3.519000000000E-01	-5.000000000000E-01
	O69	O	4.860000000000E-02	-4.757000000000E-01	0.000000000000E+00
	O70	O	-5.000000000000E-01	-5.000000000000E-01	-5.000000000000E-01
	O71	O	4.999000000000E-01	2.500500000000E-01	-2.510000000000E-01
	O72	O	-1.861444037262E-16	-2.500000000000E-01	-5.000000000000E-01
	O73	O	-2.634000000000E-01	-3.151000000000E-01	1.844000000000E-01
	Si74	Si	-1.414000000000E-01	-3.650000000000E-01	0.000000000000E+00
	O75	O	1.473000000000E-01	-4.263500000000E-01	1.835000000000E-01
	Si76	Si	2.700000000000E-01	4.293000000000E-01	0.000000000000E+00
	O77	O	-4.860000000000E-02	4.757000000000E-01	0.000000000000E+00
	Si78	Si	1.414000000000E-01	3.650000000000E-01	0.000000000000E+00
	O79	O	1.473000000000E-01	-4.263500000000E-01	-1.835000000000E-01
	Si80	Si	-2.700000000000E-01	-4.293000000000E-01	0.000000000000E+00
	O81	O	8.090000000000E-02	3.568500000000E-01	0.000000000000E+00
	Si82	Si	-4.619000000000E-01	2.690500000000E-01	2.804000000000E-01
	O83	O	-1.473000000000E-01	4.263500000000E-01	-1.835000000000E-01
	Si84	Si	-4.619000000000E-01	-2.309500000000E-01	-2.804000000000E-01
	O85	O	-2.635000000000E-01	-3.150500000000E-01	-1.843000000000E-01
	Si86	Si	4.619000000000E-01	-2.690500000000E-01	-2.804000000000E-01
	O87	O	-1.473000000000E-01	4.263500000000E-01	1.835000000000E-01
	Si88	Si	4.619000000000E-01	2.309500000000E-01	2.804000000000E-01
	O89	O	3.698000000000E-01	3.683000000000E-01	-1.844000000000E-01
	Si90	Si	1.857000000000E-01	-4.071500000000E-01	2.057000000000E-01
	O91	O	1.240000000000E-02	-3.094000000000E-01	3.167000000000E-01
	Si92	Si	1.857000000000E-01	-4.071500000000E-01	-2.057000000000E-01
	O93	O	3.699000000000E-01	3.682500000000E-01	1.843000000000E-01
	Si94	Si	-1.857000000000E-01	4.071500000000E-01	-2.057000000000E-01
	O95	O	3.812000000000E-01	-4.938000000000E-01	-3.167000000000E-01
	Si96	Si	-1.857000000000E-01	4.071500000000E-01	2.057000000000E-01
	O97	O	2.863000000000E-01	4.595500000000E-01	0.000000000000E+00
	Si98	Si	4.920000000000E-01	4.659000000000E-01	-5.000000000000E-01
	O99	O	-1.240000000000E-02	3.094000000000E-01	-3.167000000000E-01
	Si100	Si	-6.820000000000E-02	-2.540000000000E-01	-5.000000000000E-01
	O101	O	2.635000000000E-01	3.150500000000E-01	1.843000000000E-01
	Si102	Si	-4.920000000000E-01	-4.659000000000E-01	-5.000000000000E-01
	O103	O	-3.812000000000E-01	4.938000000000E-01	3.167000000000E-01
	Si104	Si	6.820000000000E-02	2.540000000000E-01	-5.000000000000E-01
	O105	O	2.634000000000E-01	3.151000000000E-01	-1.844000000000E-01
	Si106	Si	1.250000000000E-01	-4.375000000000E-01	0.000000000000E+00
	O107	O	2.014000000000E-01	-3.993000000000E-01	0.000000000000E+00
	Si108	Si	-1.250000000000E-01	4.375000000000E-01	0.000000000000E+00


data_ RTE
_chemical_name_common		'RTE'
_cell_length_a		9.81863667
_cell_length_b		19.63727333
_cell_length_c		7.43100000
_cell_angle_alpha		81.116848
_cell_angle_beta		98.883152
_cell_angle_gamma		91.766109
_space group_name_H-M_alt		'P 1'
_space_group_IT_number		1

loop_
	_atom_site_label
	_atom_site_type_symbol
	_atom_site_fract_x
	_atom_site_fract_y
	_atom_site_fract_z
	O1	O	-1.885000000000E-01	2.178500000000E-01	-3.755000000000E-01
	O2	O	4.357000000000E-01	-9.425000000000E-02	3.755000000000E-01
	O3	O	1.885000000000E-01	-2.178500000000E-01	3.755000000000E-01
	O4	O	-4.357000000000E-01	9.425000000000E-02	-3.755000000000E-01
	O5	O	-3.544000000000E-01	-1.772000000000E-01	-5.000000000000E-01
	O6	O	3.544000000000E-01	1.772000000000E-01	-5.000000000000E-01
	O7	O	-1.982000000000E-01	-2.202000000000E-01	2.835000000000E-01
	O8	O	-4.404000000000E-01	-9.910000000000E-02	-2.835000000000E-01
	O9	O	1.982000000000E-01	2.202000000000E-01	-2.835000000000E-01
	O10	O	4.404000000000E-01	9.910000000000E-02	2.835000000000E-01
	O11	O	-4.082000000000E-01	2.041000000000E-01	3.808000000000E-01
	O12	O	4.082000000000E-01	-2.041000000000E-01	-3.808000000000E-01
	O13	O	-2.155000000000E-01	-2.488500000000E-01	-5.340000000000E-02
	O14	O	-4.977000000000E-01	-1.077500000000E-01	5.340000000000E-02
	O15	O	2.155000000000E-01	2.488500000000E-01	5.340000000000E-02
	O16	O	4.977000000000E-01	1.077500000000E-01	-5.340000000000E-02
	O17	O	4.999999999998E-04	1.809500000000E-01	-8.770000000000E-02
	O18	O	3.619000000000E-01	2.499999999999E-04	8.770000000000E-02
	O19	O	-4.999999999998E-04	-1.809500000000E-01	8.770000000000E-02
	O20	O	-3.619000000000E-01	-2.499999999999E-04	-8.770000000000E-02
	O21	O	-2.441000000000E-01	1.220500000000E-01	-1.079000000000E-01
	O22	O	2.441000000000E-01	-1.220500000000E-01	1.079000000000E-01
	O23	O	-2.421000000000E-01	-1.210500000000E-01	0.000000000000E+00
	O24	O	2.421000000000E-01	1.210500000000E-01	0.000000000000E+00
	Si25	Si	-2.875000000000E-01	-2.438500000000E-01	4.471000000000E-01
	Si26	Si	-4.877000000000E-01	-1.437500000000E-01	-4.471000000000E-01
	Si27	Si	2.875000000000E-01	2.438500000000E-01	-4.471000000000E-01
	Si28	Si	4.877000000000E-01	1.437500000000E-01	4.471000000000E-01
	Si29	Si	-1.617000000000E-01	1.930500000000E-01	-1.563000000000E-01
	Si30	Si	3.861000000000E-01	-8.085000000000E-02	1.563000000000E-01
	Si31	Si	1.617000000000E-01	-1.930500000000E-01	1.563000000000E-01
	Si32	Si	-3.861000000000E-01	8.085000000000E-02	-1.563000000000E-01
	Si33	Si	-1.642000000000E-01	-1.928000000000E-01	7.970000000000E-02
	Si34	Si	-3.856000000000E-01	-8.210000000000E-02	-7.970000000000E-02
	Si35	Si	1.642000000000E-01	1.928000000000E-01	-7.970000000000E-02
	Si36	Si	3.856000000000E-01	8.210000000000E-02	7.970000000000E-02
	O37	O	-3.544000000000E-01	3.228000000000E-01	-5.000000000000E-01
	O38	O	-5.000000000000E-04	3.190500000000E-01	8.770000000000E-02
	O39	O	4.404000000000E-01	-4.009000000000E-01	2.835000000000E-01
	O40	O	-3.619000000000E-01	4.997500000000E-01	-8.770000000000E-02
	O41	O	1.885000000000E-01	2.821500000000E-01	3.755000000000E-01
	O42	O	-2.441000000000E-01	-3.779500000000E-01	-1.079000000000E-01
	O43	O	-4.082000000000E-01	-2.959000000000E-01	3.808000000000E-01
	O44	O	2.441000000000E-01	3.779500000000E-01	1.079000000000E-01
	O45	O	3.544000000000E-01	-3.228000000000E-01	-5.000000000000E-01
	O46	O	-2.421000000000E-01	3.789500000000E-01	0.000000000000E+00
	O47	O	4.082000000000E-01	2.959000000000E-01	-3.808000000000E-01
	O48	O	2.421000000000E-01	-3.789500000000E-01	0.000000000000E+00
	O49	O	4.357000000000E-01	4.057500000000E-01	3.755000000000E-01
	Si50	Si	-2.875000000000E-01	2.561500000000E-01	4.471000000000E-01
	O51	O	-2.155000000000E-01	2.511500000000E-01	-5.340000000000E-02
	Si52	Si	-4.877000000000E-01	3.562500000000E-01	-4.471000000000E-01
	O53	O	-1.982000000000E-01	2.798000000000E-01	2.835000000000E-01
	Si54	Si	2.875000000000E-01	-2.561500000000E-01	-4.471000000000E-01
	O55	O	-4.977000000000E-01	3.922500000000E-01	5.340000000000E-02
	Si56	Si	4.877000000000E-01	-3.562500000000E-01	4.471000000000E-01
	O57	O	-4.357000000000E-01	-4.057500000000E-01	-3.755000000000E-01
	Si58	Si	-1.617000000000E-01	-3.069500000000E-01	-1.563000000000E-01
	O59	O	2.155000000000E-01	-2.511500000000E-01	5.340000000000E-02
	Si60	Si	3.861000000000E-01	4.191500000000E-01	1.563000000000E-01
	O61	O	-4.404000000000E-01	4.009000000000E-01	-2.835000000000E-01
	Si62	Si	1.617000000000E-01	3.069500000000E-01	1.563000000000E-01
	O63	O	4.977000000000E-01	-3.922500000000E-01	-5.340000000000E-02
	Si64	Si	-3.861000000000E-01	-4.191500000000E-01	-1.563000000000E-01
	O65	O	-1.885000000000E-01	-2.821500000000E-01	-3.755000000000E-01
	Si66	Si	-1.642000000000E-01	3.072000000000E-01	7.970000000000E-02
	O67	O	5.000000000001E-04	-3.190500000000E-01	-8.770000000000E-02
	Si68	Si	-3.856000000000E-01	4.179000000000E-01	-7.970000000000E-02
	O69	O	1.982000000000E-01	-2.798000000000E-01	-2.835000000000E-01
	Si70	Si	1.642000000000E-01	-3.072000000000E-01	-7.970000000000E-02
	O71	O	3.619000000000E-01	-4.997500000000E-01	8.770000000000E-02
	Si72	Si	3.856000000000E-01	-4.179000000000E-01	7.970000000000E-02


data_ RTH
_chemical_name_common		'RTH'
_cell_length_a		11.36637084
_cell_length_b		22.73274167
_cell_length_c		9.99600000
_cell_angle_alpha		87.044095
_cell_angle_beta		92.955905
_cell_angle_gamma		50.862107
_space group_name_H-M_alt		'P 1'
_space_group_IT_number		1

loop_
	_atom_site_label
	_atom_site_type_symbol
	_atom_site_fract_x
	_atom_site_fract_y
	_atom_site_fract_z
	O1	O	4.535000000000E-01	6.725000000000E-02	3.234000000000E-01
	O2	O	1.345000000000E-01	-2.732500000000E-01	-3.234000000000E-01
	O3	O	-4.535000000000E-01	-6.725000000000E-02	-3.234000000000E-01
	O4	O	-1.345000000000E-01	2.732500000000E-01	3.234000000000E-01
	O5	O	3.349000000000E-01	1.674500000000E-01	-5.000000000000E-01
	O6	O	-3.349000000000E-01	3.325500000000E-01	-5.000000000000E-01
	O7	O	3.536000000000E-01	-2.938000000000E-01	2.551000000000E-01
	O8	O	4.124000000000E-01	1.768000000000E-01	-2.551000000000E-01
	O9	O	-3.536000000000E-01	2.938000000000E-01	-2.551000000000E-01
	O10	O	-4.124000000000E-01	-1.768000000000E-01	2.551000000000E-01
	O11	O	1.588000000000E-01	1.827000000000E-01	2.959000000000E-01
	O12	O	3.654000000000E-01	7.940000000000E-02	-2.959000000000E-01
	O13	O	-1.588000000000E-01	-1.827000000000E-01	-2.959000000000E-01
	O14	O	-3.654000000000E-01	-7.940000000000E-02	2.959000000000E-01
	O15	O	3.456000000000E-01	-8.130000000000E-02	8.040000000000E-02
	O16	O	-1.626000000000E-01	1.728000000000E-01	-8.040000000000E-02
	O17	O	-3.456000000000E-01	8.130000000000E-02	-8.040000000000E-02
	O18	O	1.626000000000E-01	-1.728000000000E-01	8.040000000000E-02
	O19	O	4.379000000000E-01	-2.189500000000E-01	1.501000000000E-01
	O20	O	-4.379000000000E-01	2.189500000000E-01	-1.501000000000E-01
	O21	O	-4.016000000000E-01	2.992000000000E-01	0.000000000000E+00
	O22	O	4.016000000000E-01	2.008000000000E-01	0.000000000000E+00
	O23	O	-3.789000000000E-01	1.565000000000E-02	1.211000000000E-01
	O24	O	3.130000000000E-02	-1.894500000000E-01	-1.211000000000E-01
	O25	O	3.789000000000E-01	-1.565000000000E-02	-1.211000000000E-01
	O26	O	-3.130000000000E-02	1.894500000000E-01	1.211000000000E-01
	O27	O	3.880000000000E-01	1.730000000000E-02	1.257000000000E-01
	O28	O	3.460000000000E-02	1.940000000000E-01	-1.257000000000E-01
	O29	O	-3.880000000000E-01	-1.730000000000E-02	-1.257000000000E-01
	O30	O	-3.460000000000E-02	-1.940000000000E-01	1.257000000000E-01
	O31	O	1.286000000000E-01	6.430000000000E-02	0.000000000000E+00
	O32	O	-1.286000000000E-01	-6.430000000000E-02	0.000000000000E+00
	Si33	Si	3.249000000000E-01	-3.441500000000E-01	3.436000000000E-01
	Si34	Si	3.117000000000E-01	1.624500000000E-01	-3.436000000000E-01
	Si35	Si	-3.249000000000E-01	3.441500000000E-01	-3.436000000000E-01
	Si36	Si	-3.117000000000E-01	-1.624500000000E-01	3.436000000000E-01
	Si37	Si	4.923000000000E-01	-1.695500000000E-01	1.214000000000E-01
	Si38	Si	-3.391000000000E-01	2.461500000000E-01	-1.214000000000E-01
	Si39	Si	-4.923000000000E-01	1.695500000000E-01	-1.214000000000E-01
	Si40	Si	3.391000000000E-01	-2.461500000000E-01	1.214000000000E-01
	Si41	Si	-4.756000000000E-01	5.100000000000E-03	2.165000000000E-01
	Si42	Si	1.020000000000E-02	-2.378000000000E-01	-2.165000000000E-01
	Si43	Si	4.756000000000E-01	-5.100000000000E-03	-2.165000000000E-01
	Si44	Si	-1.020000000000E-02	2.378000000000E-01	2.165000000000E-01
	Si45	Si	3.103000000000E-01	-3.750000000000E-03	2.120000000000E-02
	Si46	Si	-7.500000000000E-03	1.551500000000E-01	-2.120000000000E-02
	Si47	Si	-3.103000000000E-01	3.750000000000E-03	-2.120000000000E-02
	Si48	Si	7.500000000000E-03	-1.551500000000E-01	2.120000000000E-02
	O49	O	1.345000000000E-01	2.267500000000E-01	-3.234000000000E-01
	O50	O	3.789000000000E-01	4.843500000000E-01	-1.211000000000E-01
	O51	O	-1.588000000000E-01	3.173000000000E-01	-2.959000000000E-01
	O52	O	-3.130000000000E-02	-3.105500000000E-01	1.211000000000E-01
	O53	O	3.536000000000E-01	2.062000000000E-01	2.551000000000E-01
	O54	O	3.880000000000E-01	-4.827000000000E-01	1.257000000000E-01
	O55	O	-3.654000000000E-01	4.206000000000E-01	2.959000000000E-01
	O56	O	3.460000000000E-02	-3.060000000000E-01	-1.257000000000E-01
	O57	O	-1.345000000000E-01	-2.267500000000E-01	3.234000000000E-01
	O58	O	-3.880000000000E-01	4.827000000000E-01	-1.257000000000E-01
	O59	O	3.456000000000E-01	4.187000000000E-01	8.040000000000E-02
	O60	O	-3.460000000000E-02	3.060000000000E-01	1.257000000000E-01
	O61	O	4.124000000000E-01	-3.232000000000E-01	-2.551000000000E-01
	O62	O	1.286000000000E-01	-4.357000000000E-01	0.000000000000E+00
	O63	O	-1.626000000000E-01	-3.272000000000E-01	-8.040000000000E-02
	O64	O	-1.286000000000E-01	4.357000000000E-01	0.000000000000E+00
	O65	O	4.535000000000E-01	-4.327500000000E-01	3.234000000000E-01
	Si66	Si	3.249000000000E-01	1.558500000000E-01	3.436000000000E-01
	O67	O	-3.456000000000E-01	-4.187000000000E-01	-8.040000000000E-02
	Si68	Si	3.117000000000E-01	-3.375500000000E-01	-3.436000000000E-01
	O69	O	-3.536000000000E-01	-2.062000000000E-01	-2.551000000000E-01
	Si70	Si	-3.249000000000E-01	-1.558500000000E-01	-3.436000000000E-01
	O71	O	1.626000000000E-01	3.272000000000E-01	8.040000000000E-02
	Si72	Si	-3.117000000000E-01	3.375500000000E-01	3.436000000000E-01
	O73	O	3.349000000000E-01	-3.325500000000E-01	-5.000000000000E-01
	Si74	Si	4.923000000000E-01	3.304500000000E-01	1.214000000000E-01
	O75	O	4.379000000000E-01	2.810500000000E-01	1.501000000000E-01
	Si76	Si	-3.391000000000E-01	-2.538500000000E-01	-1.214000000000E-01
	O77	O	-4.124000000000E-01	3.232000000000E-01	2.551000000000E-01
	Si78	Si	-4.923000000000E-01	-3.304500000000E-01	-1.214000000000E-01
	O79	O	-4.379000000000E-01	-2.810500000000E-01	-1.501000000000E-01
	Si80	Si	3.391000000000E-01	2.538500000000E-01	1.214000000000E-01
	O81	O	-4.535000000000E-01	4.327500000000E-01	-3.234000000000E-01
	Si82	Si	-4.756000000000E-01	-4.949000000000E-01	2.165000000000E-01
	O83	O	-4.016000000000E-01	-2.008000000000E-01	0.000000000000E+00
	Si84	Si	1.020000000000E-02	2.622000000000E-01	-2.165000000000E-01
	O85	O	1.588000000000E-01	-3.173000000000E-01	2.959000000000E-01
	Si86	Si	4.756000000000E-01	4.949000000000E-01	-2.165000000000E-01
	O87	O	4.016000000000E-01	-2.992000000000E-01	0.000000000000E+00
	Si88	Si	-1.020000000000E-02	-2.622000000000E-01	2.165000000000E-01
	O89	O	-3.349000000000E-01	-1.674500000000E-01	-5.000000000000E-01
	Si90	Si	3.103000000000E-01	4.962500000000E-01	2.120000000000E-02
	O91	O	-3.789000000000E-01	-4.843500000000E-01	1.211000000000E-01
	Si92	Si	-7.500000000000E-03	-3.448500000000E-01	-2.120000000000E-02
	O93	O	3.654000000000E-01	-4.206000000000E-01	-2.959000000000E-01
	Si94	Si	-3.103000000000E-01	-4.962500000000E-01	-2.120000000000E-02
	O95	O	3.130000000000E-02	3.105500000000E-01	-1.211000000000E-01
	Si96	Si	7.500000000000E-03	3.448500000000E-01	2.120000000000E-02


data_ RUT
_chemical_name_common		'RUT'
_cell_length_a		9.37272602
_cell_length_b		9.37272602
_cell_length_c		24.90800000
_cell_angle_alpha		72.760156
_cell_angle_beta		107.239844
_cell_angle_gamma		89.732001
_space group_name_H-M_alt		'P 1'
_space_group_IT_number		1

loop_
	_atom_site_label
	_atom_site_type_symbol
	_atom_site_fract_x
	_atom_site_fract_y
	_atom_site_fract_z
	O1	O	3.059000000000E-01	-1.790000000000E-02	2.000000000000E-03
	O2	O	-1.790000000000E-02	3.059000000000E-01	-2.000000000000E-03
	O3	O	-3.059000000000E-01	1.790000000000E-02	-2.000000000000E-03
	O4	O	1.790000000000E-02	-3.059000000000E-01	2.000000000000E-03
	O5	O	3.031000000000E-01	-3.031000000000E-01	5.855000000000E-02
	O6	O	-3.031000000000E-01	3.031000000000E-01	-5.855000000000E-02
	O7	O	-4.413000000000E-01	-1.943000000000E-01	5.405000000000E-02
	O8	O	-1.943000000000E-01	-4.413000000000E-01	-5.405000000000E-02
	O9	O	4.413000000000E-01	1.943000000000E-01	-5.405000000000E-02
	O10	O	1.943000000000E-01	4.413000000000E-01	5.405000000000E-02
	O11	O	4.129000000000E-01	-1.179000000000E-01	1.182000000000E-01
	O12	O	-1.179000000000E-01	4.129000000000E-01	-1.182000000000E-01
	O13	O	-4.129000000000E-01	1.179000000000E-01	-1.182000000000E-01
	O14	O	1.179000000000E-01	-4.129000000000E-01	1.182000000000E-01
	O15	O	3.386000000000E-01	-3.386000000000E-01	1.953000000000E-01
	O16	O	-3.386000000000E-01	3.386000000000E-01	-1.953000000000E-01
	O17	O	-4.222000000000E-01	-2.038000000000E-01	2.303000000000E-01
	O18	O	-2.038000000000E-01	-4.222000000000E-01	-2.303000000000E-01
	O19	O	4.222000000000E-01	2.038000000000E-01	-2.303000000000E-01
	O20	O	2.038000000000E-01	4.222000000000E-01	2.303000000000E-01
	O21	O	3.083000000000E-01	-6.190000000000E-02	1.976500000000E-01
	O22	O	-6.190000000000E-02	3.083000000000E-01	-1.976500000000E-01
	O23	O	-3.083000000000E-01	6.190000000000E-02	-1.976500000000E-01
	O24	O	6.190000000000E-02	-3.083000000000E-01	1.976500000000E-01
	O25	O	1.867000000000E-01	1.503000000000E-01	9.675000000000E-02
	O26	O	1.503000000000E-01	1.867000000000E-01	-9.675000000000E-02
	O27	O	-1.867000000000E-01	-1.503000000000E-01	-9.675000000000E-02
	O28	O	-1.503000000000E-01	-1.867000000000E-01	9.675000000000E-02
	O29	O	1.440000000000E-02	-1.440000000000E-02	1.511000000000E-01
	O30	O	-1.440000000000E-02	1.440000000000E-02	-1.511000000000E-01
	O31	O	1.638000000000E-01	1.828000000000E-01	1.953000000000E-01
	O32	O	1.828000000000E-01	1.638000000000E-01	-1.953000000000E-01
	O33	O	-1.638000000000E-01	-1.828000000000E-01	-1.953000000000E-01
	O34	O	-1.828000000000E-01	-1.638000000000E-01	1.953000000000E-01
	O35	O	2.609000000000E-01	2.609000000000E-01	0.000000000000E+00
	O36	O	-2.609000000000E-01	-2.609000000000E-01	0.000000000000E+00
	Si37	Si	3.949000000000E-01	-1.583000000000E-01	5.820000000000E-02
	Si38	Si	-1.583000000000E-01	3.949000000000E-01	-5.820000000000E-02
	Si39	Si	-3.949000000000E-01	1.583000000000E-01	-5.820000000000E-02
	Si40	Si	1.583000000000E-01	-3.949000000000E-01	5.820000000000E-02
	Si41	Si	4.098000000000E-01	-1.804000000000E-01	1.854000000000E-01
	Si42	Si	-1.804000000000E-01	4.098000000000E-01	-1.854000000000E-01
	Si43	Si	-4.098000000000E-01	1.804000000000E-01	-1.854000000000E-01
	Si44	Si	1.804000000000E-01	-4.098000000000E-01	1.854000000000E-01
	Si45	Si	1.683000000000E-01	6.430000000000E-02	1.603000000000E-01
	Si46	Si	6.430000000000E-02	1.683000000000E-01	-1.603000000000E-01
	Si47	Si	-1.683000000000E-01	-6.430000000000E-02	-1.603000000000E-01
	Si48	Si	-6.430000000000E-02	-1.683000000000E-01	1.603000000000E-01
	Si49	Si	1.556000000000E-01	2.900000000000E-01	3.715000000000E-02
	Si50	Si	2.900000000000E-01	1.556000000000E-01	-3.715000000000E-02
	Si51	Si	-1.556000000000E-01	-2.900000000000E-01	-3.715000000000E-02
	Si52	Si	-2.900000000000E-01	-1.556000000000E-01	3.715000000000E-02
	Si53	Si	2.432000000000E-01	2.432000000000E-01	2.500000000000E-01
	Si54	Si	-2.432000000000E-01	-2.432000000000E-01	2.500000000000E-01
	O55	O	1.179000000000E-01	-4.129000000000E-01	-3.818000000000E-01
	O56	O	-1.503000000000E-01	-1.867000000000E-01	-4.032500000000E-01
	O57	O	1.790000000000E-02	-3.059000000000E-01	-4.980000000000E-01
	O58	O	1.440000000000E-02	-1.440000000000E-02	-3.489000000000E-01
	O59	O	3.386000000000E-01	-3.386000000000E-01	-3.047000000000E-01
	O60	O	-1.440000000000E-02	1.440000000000E-02	3.489000000000E-01
	O61	O	-1.943000000000E-01	-4.413000000000E-01	4.459500000000E-01
	O62	O	1.638000000000E-01	1.828000000000E-01	-3.047000000000E-01
	O63	O	-3.386000000000E-01	3.386000000000E-01	3.047000000000E-01
	O64	O	1.828000000000E-01	1.638000000000E-01	3.047000000000E-01
	O65	O	3.059000000000E-01	-1.790000000000E-02	-4.980000000000E-01
	O66	O	-1.638000000000E-01	-1.828000000000E-01	3.047000000000E-01
	O67	O	-4.222000000000E-01	-2.038000000000E-01	-2.697000000000E-01
	O68	O	-1.828000000000E-01	-1.638000000000E-01	-3.047000000000E-01
	O69	O	4.413000000000E-01	1.943000000000E-01	4.459500000000E-01
	O70	O	2.609000000000E-01	2.609000000000E-01	-5.000000000000E-01
	O71	O	-2.038000000000E-01	-4.222000000000E-01	2.697000000000E-01
	O72	O	-2.609000000000E-01	-2.609000000000E-01	-5.000000000000E-01
	O73	O	3.031000000000E-01	-3.031000000000E-01	-4.414500000000E-01
	Si74	Si	3.949000000000E-01	-1.583000000000E-01	-4.418000000000E-01
	O75	O	4.222000000000E-01	2.038000000000E-01	2.697000000000E-01
	Si76	Si	-1.583000000000E-01	3.949000000000E-01	4.418000000000E-01
	O77	O	1.943000000000E-01	4.413000000000E-01	-4.459500000000E-01
	Si78	Si	-3.949000000000E-01	1.583000000000E-01	4.418000000000E-01
	O79	O	2.038000000000E-01	4.222000000000E-01	-2.697000000000E-01
	Si80	Si	1.583000000000E-01	-3.949000000000E-01	-4.418000000000E-01
	O81	O	-3.059000000000E-01	1.790000000000E-02	4.980000000000E-01
	Si82	Si	4.098000000000E-01	-1.804000000000E-01	-3.146000000000E-01
	O83	O	3.083000000000E-01	-6.190000000000E-02	-3.023500000000E-01
	Si84	Si	-1.804000000000E-01	4.098000000000E-01	3.146000000000E-01
	O85	O	4.129000000000E-01	-1.179000000000E-01	-3.818000000000E-01
	Si86	Si	-4.098000000000E-01	1.804000000000E-01	3.146000000000E-01
	O87	O	-6.190000000000E-02	3.083000000000E-01	3.023500000000E-01
	Si88	Si	1.804000000000E-01	-4.098000000000E-01	-3.146000000000E-01
	O89	O	-3.031000000000E-01	3.031000000000E-01	4.414500000000E-01
	Si90	Si	1.683000000000E-01	6.430000000000E-02	-3.397000000000E-01
	O91	O	-3.083000000000E-01	6.190000000000E-02	3.023500000000E-01
	Si92	Si	6.430000000000E-02	1.683000000000E-01	3.397000000000E-01
	O93	O	-1.179000000000E-01	4.129000000000E-01	3.818000000000E-01
	Si94	Si	-1.683000000000E-01	-6.430000000000E-02	3.397000000000E-01
	O95	O	6.190000000000E-02	-3.083000000000E-01	-3.023500000000E-01
	Si96	Si	-6.430000000000E-02	-1.683000000000E-01	-3.397000000000E-01
	O97	O	-1.790000000000E-02	3.059000000000E-01	4.980000000000E-01
	Si98	Si	1.556000000000E-01	2.900000000000E-01	-4.628500000000E-01
	O99	O	1.867000000000E-01	1.503000000000E-01	-4.032500000000E-01
	Si100	Si	2.900000000000E-01	1.556000000000E-01	4.628500000000E-01
	O101	O	-4.129000000000E-01	1.179000000000E-01	3.818000000000E-01
	Si102	Si	-1.556000000000E-01	-2.900000000000E-01	4.628500000000E-01
	O103	O	1.503000000000E-01	1.867000000000E-01	4.032500000000E-01
	Si104	Si	-2.900000000000E-01	-1.556000000000E-01	-4.628500000000E-01
	O105	O	-4.413000000000E-01	-1.943000000000E-01	-4.459500000000E-01
	Si106	Si	2.432000000000E-01	2.432000000000E-01	-2.500000000000E-01
	O107	O	-1.867000000000E-01	-1.503000000000E-01	4.032500000000E-01
	Si108	Si	-2.432000000000E-01	-2.432000000000E-01	-2.500000000000E-01


data_ RWR
_chemical_name_common		'RWR'
_cell_length_a		14.74694690
_cell_length_b		14.74694690
_cell_length_c		29.49389381
_cell_angle_alpha		149.305910
_cell_angle_beta		149.305910
_cell_angle_gamma		43.961216
_space group_name_H-M_alt		'P 1'
_space_group_IT_number		1

loop_
	_atom_site_label
	_atom_site_type_symbol
	_atom_site_fract_x
	_atom_site_fract_y
	_atom_site_fract_z
	O1	O	2.397000000000E-01	1.265000000000E-01	2.256000000000E-01
	O2	O	-3.247000000000E-01	-2.115000000000E-01	2.744000000000E-01
	O3	O	1.030000000000E-02	-3.850000000000E-02	1.934000000000E-01
	O4	O	-4.253000000000E-01	-3.765000000000E-01	-1.934000000000E-01
	O5	O	-1.265000000000E-01	-2.397000000000E-01	-2.256000000000E-01
	O6	O	2.115000000000E-01	3.247000000000E-01	2.256000000000E-01
	O7	O	3.850000000000E-02	-1.030000000000E-02	3.066000000000E-01
	O8	O	3.765000000000E-01	4.253000000000E-01	1.934000000000E-01
	O9	O	1.030000000000E-02	-3.765000000000E-01	2.440000000000E-02
	O10	O	-4.253000000000E-01	-3.850000000000E-02	-2.440000000000E-02
	O11	O	2.397000000000E-01	-2.115000000000E-01	5.660000000000E-02
	O12	O	-3.247000000000E-01	1.265000000000E-01	4.434000000000E-01
	O13	O	3.765000000000E-01	-1.030000000000E-02	4.756000000000E-01
	O14	O	3.850000000000E-02	4.253000000000E-01	2.440000000000E-02
	O15	O	2.115000000000E-01	-2.397000000000E-01	-5.660000000000E-02
	O16	O	-1.265000000000E-01	3.247000000000E-01	5.660000000000E-02
	O17	O	-4.402000000000E-01	2.716000000000E-01	-3.559000000000E-01
	O18	O	-1.660000000000E-02	2.716000000000E-01	-1.441000000000E-01
	O19	O	-3.098000000000E-01	4.784000000000E-01	1.059000000000E-01
	O20	O	2.666000000000E-01	4.784000000000E-01	-1.059000000000E-01
	O21	O	-2.716000000000E-01	4.402000000000E-01	-1.441000000000E-01
	O22	O	-2.716000000000E-01	1.660000000000E-02	1.441000000000E-01
	O23	O	-4.784000000000E-01	3.098000000000E-01	3.941000000000E-01
	O24	O	-4.784000000000E-01	-2.666000000000E-01	1.059000000000E-01
	O25	O	-6.000000000000E-02	-6.000000000000E-02	-1.193901042389E-17
	O26	O	3.100000000000E-01	-1.900000000000E-01	2.500000000000E-01
	O27	O	6.000000000000E-02	6.000000000000E-02	1.084821467909E-16
	O28	O	1.900000000000E-01	-3.100000000000E-01	2.500000000000E-01
	O29	O	-3.750000000000E-01	-1.250000000000E-01	-1.250000000000E-01
	O30	O	1.250000000000E-01	-1.250000000000E-01	1.250000000000E-01
	O31	O	1.250000000000E-01	3.750000000000E-01	1.250000000000E-01
	O32	O	1.250000000000E-01	-1.250000000000E-01	-1.250000000000E-01
	Si33	Si	-2.719000000000E-01	-6.780000000000E-02	-1.020500000000E-01
	Si34	Si	1.363000000000E-01	-6.780000000000E-02	1.020500000000E-01
	Si35	Si	-4.781000000000E-01	-1.822000000000E-01	3.520500000000E-01
	Si36	Si	1.137000000000E-01	-1.822000000000E-01	1.479500000000E-01
	Si37	Si	6.780000000000E-02	2.719000000000E-01	1.020500000000E-01
	Si38	Si	6.780000000000E-02	-1.363000000000E-01	-1.020500000000E-01
	Si39	Si	1.822000000000E-01	4.781000000000E-01	1.479500000000E-01
	Si40	Si	1.822000000000E-01	-1.137000000000E-01	3.520500000000E-01
	Si41	Si	-5.890000000000E-02	4.411000000000E-01	-5.890000000000E-02
	Si42	Si	-4.411000000000E-01	5.890000000000E-02	5.890000000000E-02
	Si43	Si	3.089000000000E-01	-3.089000000000E-01	-2.547239519440E-17
	Si44	Si	-3.089000000000E-01	3.089000000000E-01	5.000000000000E-01
	Si45	Si	3.089000000000E-01	3.089000000000E-01	3.089000000000E-01
	Si46	Si	-3.089000000000E-01	-3.089000000000E-01	1.911000000000E-01
	Si47	Si	-5.890000000000E-02	5.890000000000E-02	2.500000000000E-01
	Si48	Si	-4.411000000000E-01	4.411000000000E-01	2.500000000000E-01
	O49	O	-3.247000000000E-01	-2.115000000000E-01	-2.256000000000E-01
	O50	O	-6.000000000000E-02	-6.000000000000E-02	5.000000000000E-01
	O51	O	3.765000000000E-01	-1.030000000000E-02	-2.440000000000E-02
	O52	O	3.100000000000E-01	-1.900000000000E-01	-2.500000000000E-01
	O53	O	3.850000000000E-02	-1.030000000000E-02	-1.934000000000E-01
	O54	O	6.000000000000E-02	6.000000000000E-02	5.000000000000E-01
	O55	O	3.850000000000E-02	4.253000000000E-01	-4.756000000000E-01
	O56	O	1.900000000000E-01	-3.100000000000E-01	-2.500000000000E-01
	O57	O	-4.253000000000E-01	-3.765000000000E-01	3.066000000000E-01
	O58	O	-3.750000000000E-01	-1.250000000000E-01	3.750000000000E-01
	O59	O	2.115000000000E-01	-2.397000000000E-01	4.434000000000E-01
	O60	O	1.250000000000E-01	-1.250000000000E-01	-3.750000000000E-01
	O61	O	3.765000000000E-01	4.253000000000E-01	-3.066000000000E-01
	O62	O	1.250000000000E-01	3.750000000000E-01	-3.750000000000E-01
	O63	O	-1.265000000000E-01	3.247000000000E-01	-4.434000000000E-01
	O64	O	1.250000000000E-01	-1.250000000000E-01	3.750000000000E-01
	O65	O	2.397000000000E-01	1.265000000000E-01	-2.744000000000E-01
	Si66	Si	-2.719000000000E-01	-6.780000000000E-02	3.979500000000E-01
	O67	O	-4.402000000000E-01	2.716000000000E-01	1.441000000000E-01
	Si68	Si	1.363000000000E-01	-6.780000000000E-02	-3.979500000000E-01
	O69	O	1.030000000000E-02	-3.765000000000E-01	-4.756000000000E-01
	Si70	Si	-4.781000000000E-01	-1.822000000000E-01	-1.479500000000E-01
	O71	O	-1.660000000000E-02	2.716000000000E-01	3.559000000000E-01
	Si72	Si	1.137000000000E-01	-1.822000000000E-01	-3.520500000000E-01
	O73	O	-1.265000000000E-01	-2.397000000000E-01	2.744000000000E-01
	Si74	Si	6.780000000000E-02	2.719000000000E-01	-3.979500000000E-01
	O75	O	-3.098000000000E-01	4.784000000000E-01	-3.941000000000E-01
	Si76	Si	6.780000000000E-02	-1.363000000000E-01	3.979500000000E-01
	O77	O	-4.253000000000E-01	-3.850000000000E-02	4.756000000000E-01
	Si78	Si	1.822000000000E-01	4.781000000000E-01	-3.520500000000E-01
	O79	O	2.666000000000E-01	4.784000000000E-01	3.941000000000E-01
	Si80	Si	1.822000000000E-01	-1.137000000000E-01	-1.479500000000E-01
	O81	O	1.030000000000E-02	-3.850000000000E-02	-3.066000000000E-01
	Si82	Si	-5.890000000000E-02	4.411000000000E-01	4.411000000000E-01
	O83	O	-2.716000000000E-01	4.402000000000E-01	3.559000000000E-01
	Si84	Si	-4.411000000000E-01	5.890000000000E-02	-4.411000000000E-01
	O85	O	2.397000000000E-01	-2.115000000000E-01	-4.434000000000E-01
	Si86	Si	3.089000000000E-01	-3.089000000000E-01	5.000000000000E-01
	O87	O	-2.716000000000E-01	1.660000000000E-02	-3.559000000000E-01
	Si88	Si	-3.089000000000E-01	3.089000000000E-01	8.833957394392E-18
	O89	O	2.115000000000E-01	3.247000000000E-01	-2.744000000000E-01
	Si90	Si	3.089000000000E-01	3.089000000000E-01	-1.911000000000E-01
	O91	O	-4.784000000000E-01	3.098000000000E-01	-1.059000000000E-01
	Si92	Si	-3.089000000000E-01	-3.089000000000E-01	-3.089000000000E-01
	O93	O	-3.247000000000E-01	1.265000000000E-01	-5.660000000000E-02
	Si94	Si	-5.890000000000E-02	5.890000000000E-02	-2.500000000000E-01
	O95	O	-4.784000000000E-01	-2.666000000000E-01	-3.941000000000E-01
	Si96	Si	-4.411000000000E-01	4.411000000000E-01	-2.500000000000E-01


data_ SAF
_chemical_name_common		'SAF'
_cell_length_a		16.15362549
_cell_length_b		16.15362549
_cell_length_c		16.15362549
_cell_angle_alpha		125.833481
_cell_angle_beta		63.070969
_cell_angle_gamma		150.164226
_space group_name_H-M_alt		'P 1'
_space_group_IT_number		1

loop_
	_atom_site_label
	_atom_site_type_symbol
	_atom_site_fract_x
	_atom_site_fract_y
	_atom_site_fract_z
	O1	O	-4.528000000000E-01	-2.500000000000E-01	-2.028000000000E-01
	O2	O	-4.720000000000E-02	-2.500000000000E-01	2.028000000000E-01
	O3	O	4.528000000000E-01	2.500000000000E-01	2.028000000000E-01
	O4	O	4.720000000000E-02	2.500000000000E-01	-2.028000000000E-01
	O5	O	-4.826000000000E-01	-4.722000000000E-01	-3.562000000000E-01
	O6	O	-1.160000000000E-01	-1.264000000000E-01	3.562000000000E-01
	O7	O	-1.740000000000E-02	-3.736000000000E-01	1.040000000000E-02
	O8	O	-3.840000000000E-01	-2.780000000000E-02	-1.040000000000E-02
	O9	O	4.826000000000E-01	4.722000000000E-01	3.562000000000E-01
	O10	O	1.160000000000E-01	1.264000000000E-01	-3.562000000000E-01
	O11	O	1.740000000000E-02	3.736000000000E-01	-1.040000000000E-02
	O12	O	3.840000000000E-01	2.780000000000E-02	1.040000000000E-02
	O13	O	-4.795000000000E-01	-3.298000000000E-01	-3.923000000000E-01
	O14	O	6.250000000000E-02	-8.720000000000E-02	3.923000000000E-01
	O15	O	-2.050000000000E-02	-4.128000000000E-01	1.497000000000E-01
	O16	O	4.375000000000E-01	-1.702000000000E-01	-1.497000000000E-01
	O17	O	4.795000000000E-01	3.298000000000E-01	3.923000000000E-01
	O18	O	-6.250000000000E-02	8.720000000000E-02	-3.923000000000E-01
	O19	O	2.050000000000E-02	4.128000000000E-01	-1.497000000000E-01
	O20	O	-4.375000000000E-01	1.702000000000E-01	1.497000000000E-01
	O21	O	2.600000000000E-01	4.157000000000E-01	-3.243000000000E-01
	O22	O	-2.600000000000E-01	-4.157000000000E-01	3.243000000000E-01
	O23	O	2.400000000000E-01	-8.430000000000E-02	1.557000000000E-01
	O24	O	-2.400000000000E-01	8.430000000000E-02	-1.557000000000E-01
	O25	O	-7.060000000000E-02	1.133000000000E-01	4.669000000000E-01
	O26	O	-3.536000000000E-01	4.625000000000E-01	-4.669000000000E-01
	O27	O	-4.294000000000E-01	3.750000000000E-02	1.839000000000E-01
	O28	O	-1.464000000000E-01	3.867000000000E-01	-1.839000000000E-01
	O29	O	7.060000000000E-02	-1.133000000000E-01	-4.669000000000E-01
	O30	O	3.536000000000E-01	-4.625000000000E-01	4.669000000000E-01
	O31	O	4.294000000000E-01	-3.750000000000E-02	-1.839000000000E-01
	O32	O	1.464000000000E-01	-3.867000000000E-01	1.839000000000E-01
	O33	O	-9.070000000000E-02	2.500000000000E-01	-3.407000000000E-01
	O34	O	-4.093000000000E-01	2.500000000000E-01	3.407000000000E-01
	O35	O	9.070000000000E-02	-2.500000000000E-01	3.407000000000E-01
	O36	O	4.093000000000E-01	-2.500000000000E-01	-3.407000000000E-01
	O37	O	-3.426000000000E-01	-1.089000000000E-01	-4.515000000000E-01
	O38	O	3.426000000000E-01	1.089000000000E-01	4.515000000000E-01
	O39	O	-1.574000000000E-01	3.911000000000E-01	2.337000000000E-01
	O40	O	1.574000000000E-01	-3.911000000000E-01	-2.337000000000E-01
	O41	O	1.553000000000E-01	1.953000000000E-01	3.506000000000E-01
	O42	O	-1.553000000000E-01	-1.953000000000E-01	-3.506000000000E-01
	O43	O	3.447000000000E-01	-3.047000000000E-01	4.000000000000E-02
	O44	O	-3.447000000000E-01	3.047000000000E-01	-4.000000000000E-02
	O45	O	3.181000000000E-01	4.026000000000E-01	2.647000000000E-01
	O46	O	1.379000000000E-01	5.340000000000E-02	-2.647000000000E-01
	O47	O	1.819000000000E-01	4.466000000000E-01	8.450000000000E-02
	O48	O	3.621000000000E-01	9.740000000000E-02	-8.450000000000E-02
	O49	O	-3.181000000000E-01	-4.026000000000E-01	-2.647000000000E-01
	O50	O	-1.379000000000E-01	-5.340000000000E-02	2.647000000000E-01
	O51	O	-1.819000000000E-01	-4.466000000000E-01	-8.450000000000E-02
	O52	O	-3.621000000000E-01	-9.740000000000E-02	8.450000000000E-02
	O53	O	3.207000000000E-01	2.500000000000E-01	7.070000000000E-02
	O54	O	1.793000000000E-01	2.500000000000E-01	-7.070000000000E-02
	O55	O	-3.207000000000E-01	-2.500000000000E-01	-7.070000000000E-02
	O56	O	-1.793000000000E-01	-2.500000000000E-01	7.070000000000E-02
	O57	O	5.820000000000E-02	-1.072000000000E-01	-4.900000000000E-02
	O58	O	-5.820000000000E-02	1.072000000000E-01	4.900000000000E-02
	O59	O	4.418000000000E-01	3.928000000000E-01	-1.654000000000E-01
	O60	O	-4.418000000000E-01	-3.928000000000E-01	1.654000000000E-01
	O61	O	2.500000000000E-01	1.295000000000E-01	-1.205000000000E-01
	O62	O	2.500000000000E-01	3.705000000000E-01	1.205000000000E-01
	O63	O	-2.500000000000E-01	-1.295000000000E-01	1.205000000000E-01
	O64	O	-2.500000000000E-01	-3.705000000000E-01	-1.205000000000E-01
	Si65	Si	4.611000000000E-01	-4.100000000000E-01	-3.193000000000E-01
	Si66	Si	-9.070000000000E-02	-2.196000000000E-01	3.193000000000E-01
	Si67	Si	3.890000000000E-02	-2.804000000000E-01	1.289000000000E-01
	Si68	Si	-4.093000000000E-01	-9.000000000000E-02	-1.289000000000E-01
	Si69	Si	-4.611000000000E-01	4.100000000000E-01	3.193000000000E-01
	Si70	Si	9.070000000000E-02	2.196000000000E-01	-3.193000000000E-01
	Si71	Si	-3.890000000000E-02	2.804000000000E-01	-1.289000000000E-01
	Si72	Si	4.093000000000E-01	9.000000000000E-02	1.289000000000E-01
	Si73	Si	-1.412000000000E-01	8.620000000000E-02	-4.286000000000E-01
	Si74	Si	-4.852000000000E-01	2.874000000000E-01	4.286000000000E-01
	Si75	Si	-3.588000000000E-01	2.126000000000E-01	2.274000000000E-01
	Si76	Si	-1.480000000000E-02	4.138000000000E-01	-2.274000000000E-01
	Si77	Si	1.412000000000E-01	-8.620000000000E-02	4.286000000000E-01
	Si78	Si	4.852000000000E-01	-2.874000000000E-01	-4.286000000000E-01
	Si79	Si	3.588000000000E-01	-2.126000000000E-01	-2.274000000000E-01
	Si80	Si	1.480000000000E-02	-4.138000000000E-01	2.274000000000E-01
	Si81	Si	3.272000000000E-01	4.017000000000E-01	3.593000000000E-01
	Si82	Si	4.240000000000E-02	-3.210000000000E-02	-3.593000000000E-01
	Si83	Si	1.728000000000E-01	-4.679000000000E-01	7.450000000000E-02
	Si84	Si	4.576000000000E-01	9.830000000000E-02	-7.450000000000E-02
	Si85	Si	-3.272000000000E-01	-4.017000000000E-01	-3.593000000000E-01
	Si86	Si	-4.240000000000E-02	3.210000000000E-02	3.593000000000E-01
	Si87	Si	-1.728000000000E-01	4.679000000000E-01	-7.450000000000E-02
	Si88	Si	-4.576000000000E-01	-9.830000000000E-02	7.450000000000E-02
	Si89	Si	2.471000000000E-01	9.240000000000E-02	-4.530000000000E-02
	Si90	Si	1.377000000000E-01	2.924000000000E-01	4.530000000000E-02
	Si91	Si	2.529000000000E-01	2.076000000000E-01	-1.547000000000E-01
	Si92	Si	3.623000000000E-01	4.076000000000E-01	1.547000000000E-01
	Si93	Si	-2.471000000000E-01	-9.240000000000E-02	4.530000000000E-02
	Si94	Si	-1.377000000000E-01	-2.924000000000E-01	-4.530000000000E-02
	Si95	Si	-2.529000000000E-01	-2.076000000000E-01	1.547000000000E-01
	Si96	Si	-3.623000000000E-01	-4.076000000000E-01	-1.547000000000E-01


data_ SAO
_chemical_name_common		'SAO'
_cell_length_a		14.48337877
_cell_length_b		14.48337877
_cell_length_c		14.48337877
_cell_angle_alpha		124.715990
_cell_angle_beta		124.715990
_cell_angle_gamma		82.008981
_space group_name_H-M_alt		'P 1'
_space_group_IT_number		1

loop_
	_atom_site_label
	_atom_site_type_symbol
	_atom_site_fract_x
	_atom_site_fract_y
	_atom_site_fract_z
	O1	O	-1.580000000000E-02	-3.518000000000E-01	-3.620000000000E-02
	O2	O	-3.156000000000E-01	2.040000000000E-02	3.620000000000E-02
	O3	O	3.518000000000E-01	1.580000000000E-02	3.620000000000E-02
	O4	O	-2.040000000000E-02	3.156000000000E-01	-3.620000000000E-02
	O5	O	-1.580000000000E-02	2.040000000000E-02	3.360000000000E-01
	O6	O	-3.156000000000E-01	-3.518000000000E-01	-3.360000000000E-01
	O7	O	-2.040000000000E-02	1.580000000000E-02	-3.360000000000E-01
	O8	O	3.518000000000E-01	3.156000000000E-01	3.360000000000E-01
	O9	O	1.304000000000E-01	-1.773000000000E-01	6.090000000000E-02
	O10	O	-2.382000000000E-01	6.950000000000E-02	-6.090000000000E-02
	O11	O	1.773000000000E-01	-1.304000000000E-01	-6.090000000000E-02
	O12	O	-6.950000000000E-02	2.382000000000E-01	6.090000000000E-02
	O13	O	1.304000000000E-01	6.950000000000E-02	3.077000000000E-01
	O14	O	-2.382000000000E-01	-1.773000000000E-01	-3.077000000000E-01
	O15	O	-6.950000000000E-02	-1.304000000000E-01	-3.077000000000E-01
	O16	O	1.773000000000E-01	2.382000000000E-01	3.077000000000E-01
	O17	O	-9.330000000000E-02	4.790000000000E-02	1.412000000000E-01
	O18	O	-9.330000000000E-02	-2.345000000000E-01	-1.412000000000E-01
	O19	O	-4.790000000000E-02	9.330000000000E-02	-1.412000000000E-01
	O20	O	2.345000000000E-01	9.330000000000E-02	1.412000000000E-01
	O21	O	-2.190000000000E-02	-1.370000000000E-01	1.151000000000E-01
	O22	O	-2.521000000000E-01	-1.370000000000E-01	-1.151000000000E-01
	O23	O	1.370000000000E-01	2.190000000000E-02	-1.151000000000E-01
	O24	O	1.370000000000E-01	2.521000000000E-01	1.151000000000E-01
	O25	O	-2.066000000000E-01	8.580000000000E-02	2.924000000000E-01
	O26	O	-2.066000000000E-01	-4.990000000000E-01	-2.924000000000E-01
	O27	O	-8.580000000000E-02	2.066000000000E-01	-2.924000000000E-01
	O28	O	4.990000000000E-01	2.066000000000E-01	2.924000000000E-01
	O29	O	-3.999999999998E-04	4.892000000000E-01	-2.390000000000E-01
	O30	O	-2.718000000000E-01	2.386000000000E-01	2.390000000000E-01
	O31	O	-4.892000000000E-01	3.999999999999E-04	2.390000000000E-01
	O32	O	-2.386000000000E-01	2.718000000000E-01	-2.390000000000E-01
	O33	O	-3.999999999999E-04	2.386000000000E-01	-4.896000000000E-01
	O34	O	-2.718000000000E-01	4.892000000000E-01	4.896000000000E-01
	O35	O	-2.386000000000E-01	4.000000000000E-04	4.896000000000E-01
	O36	O	-4.892000000000E-01	2.718000000000E-01	-4.896000000000E-01
	O37	O	-7.100000000000E-02	7.100000000000E-02	5.000000000000E-01
	O38	O	-4.290000000000E-01	4.290000000000E-01	5.000000000000E-01
	O39	O	-7.100000000000E-02	4.290000000000E-01	-1.420000000000E-01
	O40	O	-4.290000000000E-01	7.100000000000E-02	1.420000000000E-01
	O41	O	1.618000000000E-01	-3.403000000000E-01	-1.255000000000E-01
	O42	O	-2.148000000000E-01	2.873000000000E-01	1.255000000000E-01
	O43	O	3.403000000000E-01	-1.618000000000E-01	1.255000000000E-01
	O44	O	-2.873000000000E-01	2.148000000000E-01	-1.255000000000E-01
	O45	O	1.618000000000E-01	2.873000000000E-01	-4.979000000000E-01
	O46	O	-2.148000000000E-01	-3.403000000000E-01	4.979000000000E-01
	O47	O	-2.873000000000E-01	-1.618000000000E-01	4.979000000000E-01
	O48	O	3.403000000000E-01	2.148000000000E-01	-4.979000000000E-01
	O49	O	-5.020000000000E-02	3.070000000000E-01	3.572000000000E-01
	O50	O	-5.020000000000E-02	-4.074000000000E-01	-3.572000000000E-01
	O51	O	-3.070000000000E-01	5.020000000000E-02	-3.572000000000E-01
	O52	O	4.074000000000E-01	5.020000000000E-02	3.572000000000E-01
	O53	O	8.920000000000E-02	4.559000000000E-01	-3.667000000000E-01
	O54	O	-1.774000000000E-01	4.559000000000E-01	3.667000000000E-01
	O55	O	-4.559000000000E-01	-8.920000000000E-02	3.667000000000E-01
	O56	O	-4.559000000000E-01	1.774000000000E-01	-3.667000000000E-01
	Si57	Si	-1.000000000001E-04	-2.250000000000E-01	-5.000000000001E-04
	Si58	Si	-2.245000000000E-01	4.000000000001E-04	5.000000000001E-04
	Si59	Si	2.250000000000E-01	9.999999999998E-05	5.000000000001E-04
	Si60	Si	-4.000000000000E-04	2.245000000000E-01	-5.000000000001E-04
	Si61	Si	-1.000000000001E-04	4.000000000001E-04	2.249000000000E-01
	Si62	Si	-2.245000000000E-01	-2.250000000000E-01	-2.249000000000E-01
	Si63	Si	-4.000000000000E-04	9.999999999998E-05	-2.249000000000E-01
	Si64	Si	2.250000000000E-01	2.245000000000E-01	2.249000000000E-01
	Si65	Si	5.040000000000E-02	-4.499000000000E-01	-2.717000000000E-01
	Si66	Si	-1.782000000000E-01	3.221000000000E-01	2.717000000000E-01
	Si67	Si	4.499000000000E-01	-5.040000000000E-02	2.717000000000E-01
	Si68	Si	-3.221000000000E-01	1.782000000000E-01	-2.717000000000E-01
	Si69	Si	5.040000000000E-02	3.221000000000E-01	-4.997000000000E-01
	Si70	Si	-1.782000000000E-01	-4.499000000000E-01	4.997000000000E-01
	Si71	Si	-3.221000000000E-01	-5.040000000000E-02	4.997000000000E-01
	Si72	Si	4.499000000000E-01	1.782000000000E-01	-4.997000000000E-01
	Si73	Si	-3.058000000000E-01	-4.840000000000E-01	-4.108000000000E-01
	Si74	Si	-7.320000000000E-02	1.050000000000E-01	4.108000000000E-01
	Si75	Si	4.840000000000E-01	3.058000000000E-01	4.108000000000E-01
	Si76	Si	-1.050000000000E-01	7.320000000000E-02	-4.108000000000E-01
	Si77	Si	-3.058000000000E-01	1.050000000000E-01	1.782000000000E-01
	Si78	Si	-7.320000000000E-02	-4.840000000000E-01	-1.782000000000E-01
	Si79	Si	-1.050000000000E-01	3.058000000000E-01	-1.782000000000E-01
	Si80	Si	4.840000000000E-01	7.320000000000E-02	1.782000000000E-01
	Si81	Si	-2.030000000000E-01	2.030000000000E-01	6.574025332085E-18
	Si82	Si	2.030000000000E-01	-2.030000000000E-01	-6.574025332085E-18
	Si83	Si	-2.030000000000E-01	-2.030000000000E-01	-4.060000000000E-01
	Si84	Si	2.030000000000E-01	2.030000000000E-01	4.060000000000E-01


data_ SAS
_chemical_name_common		'SAS'
_cell_length_a		11.40072373
_cell_length_b		11.40072373
_cell_length_c		22.80144745
_cell_angle_alpha		102.002689
_cell_angle_beta		102.002689
_cell_angle_gamma		125.738362
_space group_name_H-M_alt		'P 1'
_space_group_IT_number		1

loop_
	_atom_site_label
	_atom_site_type_symbol
	_atom_site_fract_x
	_atom_site_fract_y
	_atom_site_fract_z
	O1	O	-3.545896224335E-18	2.418000000000E-01	1.209000000000E-01
	O2	O	1.370037353373E-17	-2.418000000000E-01	-1.209000000000E-01
	O3	O	-2.418000000000E-01	8.543379374493E-17	-1.209000000000E-01
	O4	O	2.418000000000E-01	-8.543379374493E-17	1.209000000000E-01
	O5	O	1.690000000000E-01	1.690000000000E-01	1.690000000000E-01
	O6	O	-1.690000000000E-01	-1.690000000000E-01	-1.690000000000E-01
	O7	O	-1.690000000000E-01	1.690000000000E-01	4.281412558750E-18
	O8	O	1.690000000000E-01	-1.690000000000E-01	-4.281412558750E-18
	O9	O	-3.390000000000E-01	2.865000000000E-01	1.872500000000E-01
	O10	O	-8.800000000000E-02	2.865000000000E-01	-1.872500000000E-01
	O11	O	3.390000000000E-01	-2.865000000000E-01	-1.872500000000E-01
	O12	O	8.800000000000E-02	-2.865000000000E-01	1.872500000000E-01
	O13	O	-2.865000000000E-01	3.390000000000E-01	-1.872500000000E-01
	O14	O	-2.865000000000E-01	8.800000000000E-02	1.872500000000E-01
	O15	O	2.865000000000E-01	-3.390000000000E-01	1.872500000000E-01
	O16	O	2.865000000000E-01	-8.800000000000E-02	-1.872500000000E-01
	O17	O	-2.648000000000E-01	1.984000000000E-01	9.450000000000E-02
	O18	O	9.400000000000E-03	-4.538000000000E-01	-9.450000000000E-02
	O19	O	2.648000000000E-01	4.538000000000E-01	2.316000000000E-01
	O20	O	-9.400000000000E-03	-1.984000000000E-01	-2.316000000000E-01
	O21	O	-1.984000000000E-01	2.648000000000E-01	-9.450000000000E-02
	O22	O	4.538000000000E-01	-9.400000000000E-03	9.450000000000E-02
	O23	O	-4.538000000000E-01	-2.648000000000E-01	-2.316000000000E-01
	O24	O	1.984000000000E-01	9.400000000000E-03	2.316000000000E-01
	O25	O	2.648000000000E-01	-1.984000000000E-01	-9.450000000000E-02
	O26	O	-9.400000000000E-03	4.538000000000E-01	9.450000000000E-02
	O27	O	-2.648000000000E-01	-4.538000000000E-01	-2.316000000000E-01
	O28	O	9.400000000000E-03	1.984000000000E-01	2.316000000000E-01
	O29	O	1.984000000000E-01	-2.648000000000E-01	9.450000000000E-02
	O30	O	-4.538000000000E-01	9.400000000000E-03	-9.450000000000E-02
	O31	O	4.538000000000E-01	2.648000000000E-01	2.316000000000E-01
	O32	O	-1.984000000000E-01	-9.400000000000E-03	-2.316000000000E-01
	Si33	Si	-1.107000000000E-01	2.662000000000E-01	7.775000000000E-02
	Si34	Si	1.107000000000E-01	-2.662000000000E-01	-7.775000000000E-02
	Si35	Si	1.107000000000E-01	2.662000000000E-01	1.884500000000E-01
	Si36	Si	-1.107000000000E-01	-2.662000000000E-01	-1.884500000000E-01
	Si37	Si	-2.662000000000E-01	1.107000000000E-01	-7.775000000000E-02
	Si38	Si	2.662000000000E-01	-1.107000000000E-01	7.775000000000E-02
	Si39	Si	-2.662000000000E-01	-1.107000000000E-01	-1.884500000000E-01
	Si40	Si	2.662000000000E-01	1.107000000000E-01	1.884500000000E-01
	Si41	Si	-3.590000000000E-01	3.590000000000E-01	2.500000000000E-01
	Si42	Si	-1.410000000000E-01	1.410000000000E-01	2.500000000000E-01
	Si43	Si	3.590000000000E-01	-1.410000000000E-01	-1.410000000000E-01
	Si44	Si	1.410000000000E-01	-3.590000000000E-01	1.410000000000E-01
	Si45	Si	3.590000000000E-01	-3.590000000000E-01	2.500000000000E-01
	Si46	Si	1.410000000000E-01	-1.410000000000E-01	2.500000000000E-01
	Si47	Si	-3.590000000000E-01	1.410000000000E-01	1.410000000000E-01
	Si48	Si	-1.410000000000E-01	3.590000000000E-01	-1.410000000000E-01
	O49	O	1.040483459205E-17	-2.418000000000E-01	3.791000000000E-01
	O50	O	2.648000000000E-01	-1.984000000000E-01	4.055000000000E-01
	O51	O	-2.865000000000E-01	3.390000000000E-01	3.127500000000E-01
	O52	O	-9.400000000000E-03	4.538000000000E-01	-4.055000000000E-01
	O53	O	-1.690000000000E-01	1.690000000000E-01	5.000000000000E-01
	O54	O	-2.648000000000E-01	-4.538000000000E-01	2.684000000000E-01
	O55	O	-2.865000000000E-01	8.800000000000E-02	-3.127500000000E-01
	O56	O	9.400000000000E-03	1.984000000000E-01	-2.684000000000E-01
	O57	O	2.418000000000E-01	-4.529641015618E-17	-3.791000000000E-01
	O58	O	1.984000000000E-01	-2.648000000000E-01	-4.055000000000E-01
	O59	O	2.865000000000E-01	-3.390000000000E-01	-3.127500000000E-01
	O60	O	-4.538000000000E-01	9.400000000000E-03	4.055000000000E-01
	O61	O	1.690000000000E-01	-1.690000000000E-01	5.000000000000E-01
	O62	O	4.538000000000E-01	2.648000000000E-01	-2.684000000000E-01
	O63	O	2.865000000000E-01	-8.800000000000E-02	3.127500000000E-01
	O64	O	-1.984000000000E-01	-9.400000000000E-03	2.684000000000E-01
	O65	O	4.510631663921E-17	2.418000000000E-01	-3.791000000000E-01
	Si66	Si	-1.107000000000E-01	2.662000000000E-01	-4.222500000000E-01
	O67	O	-2.648000000000E-01	1.984000000000E-01	-4.055000000000E-01
	Si68	Si	1.107000000000E-01	-2.662000000000E-01	4.222500000000E-01
	O69	O	-3.390000000000E-01	2.865000000000E-01	-3.127500000000E-01
	Si70	Si	1.107000000000E-01	2.662000000000E-01	-3.115500000000E-01
	O71	O	9.400000000000E-03	-4.538000000000E-01	4.055000000000E-01
	Si72	Si	-1.107000000000E-01	-2.662000000000E-01	3.115500000000E-01
	O73	O	1.690000000000E-01	1.690000000000E-01	-3.310000000000E-01
	Si74	Si	-2.662000000000E-01	1.107000000000E-01	4.222500000000E-01
	O75	O	2.648000000000E-01	4.538000000000E-01	-2.684000000000E-01
	Si76	Si	2.662000000000E-01	-1.107000000000E-01	-4.222500000000E-01
	O77	O	-8.800000000000E-02	2.865000000000E-01	3.127500000000E-01
	Si78	Si	-2.662000000000E-01	-1.107000000000E-01	3.115500000000E-01
	O79	O	-9.400000000000E-03	-1.984000000000E-01	2.684000000000E-01
	Si80	Si	2.662000000000E-01	1.107000000000E-01	-3.115500000000E-01
	O81	O	-2.418000000000E-01	-4.510631663921E-17	3.791000000000E-01
	Si82	Si	-3.590000000000E-01	3.590000000000E-01	-2.500000000000E-01
	O83	O	-1.984000000000E-01	2.648000000000E-01	4.055000000000E-01
	Si84	Si	-1.410000000000E-01	1.410000000000E-01	-2.500000000000E-01
	O85	O	3.390000000000E-01	-2.865000000000E-01	3.127500000000E-01
	Si86	Si	3.590000000000E-01	-1.410000000000E-01	3.590000000000E-01
	O87	O	4.538000000000E-01	-9.400000000000E-03	-4.055000000000E-01
	Si88	Si	1.410000000000E-01	-3.590000000000E-01	-3.590000000000E-01
	O89	O	-1.690000000000E-01	-1.690000000000E-01	3.310000000000E-01
	Si90	Si	3.590000000000E-01	-3.590000000000E-01	-2.500000000000E-01
	O91	O	-4.538000000000E-01	-2.648000000000E-01	2.684000000000E-01
	Si92	Si	1.410000000000E-01	-1.410000000000E-01	-2.500000000000E-01
	O93	O	8.800000000000E-02	-2.865000000000E-01	-3.127500000000E-01
	Si94	Si	-3.590000000000E-01	1.410000000000E-01	-3.590000000000E-01
	O95	O	1.984000000000E-01	9.400000000000E-03	-2.684000000000E-01
	Si96	Si	-1.410000000000E-01	3.590000000000E-01	3.590000000000E-01


data_ SAV
_chemical_name_common		'SAV'
_cell_length_a		18.65300000
_cell_length_b		18.65300000
_cell_length_c		9.44100000
_cell_angle_alpha		90.000000
_cell_angle_beta		90.000000
_cell_angle_gamma		90.000000
_space group_name_H-M_alt		'P 1'
_space_group_IT_number		1

loop_
	_atom_site_label
	_atom_site_type_symbol
	_atom_site_fract_x
	_atom_site_fract_y
	_atom_site_fract_z
	O1	O	1.314000000000E-01	-3.686000000000E-01	0.000000000000E+00
	O2	O	3.686000000000E-01	-1.314000000000E-01	0.000000000000E+00
	O3	O	-3.686000000000E-01	3.686000000000E-01	0.000000000000E+00
	O4	O	-1.314000000000E-01	1.314000000000E-01	0.000000000000E+00
	O5	O	-1.314000000000E-01	3.686000000000E-01	0.000000000000E+00
	O6	O	-3.686000000000E-01	1.314000000000E-01	0.000000000000E+00
	O7	O	3.686000000000E-01	-3.686000000000E-01	0.000000000000E+00
	O8	O	1.314000000000E-01	-1.314000000000E-01	0.000000000000E+00
	O9	O	8.030000000000E-02	-2.500000000000E-01	1.158000000000E-01
	O10	O	4.197000000000E-01	-2.500000000000E-01	1.158000000000E-01
	O11	O	-4.197000000000E-01	2.500000000000E-01	-1.158000000000E-01
	O12	O	-8.030000000000E-02	2.500000000000E-01	-1.158000000000E-01
	O13	O	2.500000000000E-01	-8.030000000000E-02	-1.158000000000E-01
	O14	O	2.500000000000E-01	-4.197000000000E-01	-1.158000000000E-01
	O15	O	-2.500000000000E-01	4.197000000000E-01	1.158000000000E-01
	O16	O	-2.500000000000E-01	8.030000000000E-02	1.158000000000E-01
	O17	O	-1.222000000000E-01	-1.222000000000E-01	-1.624000000000E-01
	O18	O	-3.778000000000E-01	-3.778000000000E-01	-1.624000000000E-01
	O19	O	3.778000000000E-01	1.222000000000E-01	1.624000000000E-01
	O20	O	1.222000000000E-01	3.778000000000E-01	1.624000000000E-01
	O21	O	1.222000000000E-01	1.222000000000E-01	1.624000000000E-01
	O22	O	3.778000000000E-01	3.778000000000E-01	1.624000000000E-01
	O23	O	-1.222000000000E-01	-3.778000000000E-01	-1.624000000000E-01
	O24	O	-3.778000000000E-01	-1.222000000000E-01	-1.624000000000E-01
	O25	O	-9.100000000000E-03	-1.572000000000E-01	-5.700000000000E-03
	O26	O	-4.909000000000E-01	-3.428000000000E-01	-5.700000000000E-03
	O27	O	4.909000000000E-01	1.572000000000E-01	5.700000000000E-03
	O28	O	9.100000000000E-03	3.428000000000E-01	5.700000000000E-03
	O29	O	1.572000000000E-01	9.100000000000E-03	5.700000000000E-03
	O30	O	3.428000000000E-01	4.909000000000E-01	5.700000000000E-03
	O31	O	-1.572000000000E-01	-4.909000000000E-01	-5.700000000000E-03
	O32	O	-3.428000000000E-01	-9.100000000000E-03	-5.700000000000E-03
	O33	O	9.100000000000E-03	1.572000000000E-01	5.700000000000E-03
	O34	O	4.909000000000E-01	3.428000000000E-01	5.700000000000E-03
	O35	O	-4.909000000000E-01	-1.572000000000E-01	-5.700000000000E-03
	O36	O	-9.100000000000E-03	-3.428000000000E-01	-5.700000000000E-03
	O37	O	-1.572000000000E-01	-9.100000000000E-03	-5.700000000000E-03
	O38	O	-3.428000000000E-01	-4.909000000000E-01	-5.700000000000E-03
	O39	O	1.572000000000E-01	4.909000000000E-01	5.700000000000E-03
	O40	O	3.428000000000E-01	9.100000000000E-03	5.700000000000E-03
	O41	O	-6.140000000000E-02	-2.500000000000E-01	-1.930000000000E-01
	O42	O	-4.386000000000E-01	-2.500000000000E-01	-1.930000000000E-01
	O43	O	4.386000000000E-01	2.500000000000E-01	1.930000000000E-01
	O44	O	6.140000000000E-02	2.500000000000E-01	1.930000000000E-01
	O45	O	2.500000000000E-01	6.140000000000E-02	1.930000000000E-01
	O46	O	2.500000000000E-01	4.386000000000E-01	1.930000000000E-01
	O47	O	-2.500000000000E-01	-4.386000000000E-01	-1.930000000000E-01
	O48	O	-2.500000000000E-01	-6.140000000000E-02	-1.930000000000E-01
	O49	O	-7.960000000000E-02	4.204000000000E-01	5.000000000000E-01
	O50	O	-4.204000000000E-01	7.960000000000E-02	5.000000000000E-01
	O51	O	4.204000000000E-01	-4.204000000000E-01	5.000000000000E-01
	O52	O	7.960000000000E-02	-7.960000000000E-02	5.000000000000E-01
	O53	O	7.960000000000E-02	-4.204000000000E-01	5.000000000000E-01
	O54	O	4.204000000000E-01	-7.960000000000E-02	5.000000000000E-01
	O55	O	-4.204000000000E-01	4.204000000000E-01	5.000000000000E-01
	O56	O	-7.960000000000E-02	7.960000000000E-02	5.000000000000E-01
	O57	O	-6.600000000000E-03	3.670000000000E-01	2.812000000000E-01
	O58	O	-4.934000000000E-01	1.330000000000E-01	2.812000000000E-01
	O59	O	4.934000000000E-01	-3.670000000000E-01	-2.812000000000E-01
	O60	O	6.600000000000E-03	-1.330000000000E-01	-2.812000000000E-01
	O61	O	-3.670000000000E-01	6.600000000000E-03	-2.812000000000E-01
	O62	O	-1.330000000000E-01	4.934000000000E-01	-2.812000000000E-01
	O63	O	3.670000000000E-01	-4.934000000000E-01	2.812000000000E-01
	O64	O	1.330000000000E-01	-6.600000000000E-03	2.812000000000E-01
	O65	O	6.600000000000E-03	-3.670000000000E-01	-2.812000000000E-01
	O66	O	4.934000000000E-01	-1.330000000000E-01	-2.812000000000E-01
	O67	O	-4.934000000000E-01	3.670000000000E-01	2.812000000000E-01
	O68	O	-6.600000000000E-03	1.330000000000E-01	2.812000000000E-01
	O69	O	3.670000000000E-01	-6.600000000000E-03	2.812000000000E-01
	O70	O	1.330000000000E-01	-4.934000000000E-01	2.812000000000E-01
	O71	O	-3.670000000000E-01	4.934000000000E-01	-2.812000000000E-01
	O72	O	-1.330000000000E-01	6.600000000000E-03	-2.812000000000E-01
	O73	O	-1.249000000000E-01	4.440000000000E-01	2.378000000000E-01
	O74	O	-3.751000000000E-01	5.600000000000E-02	2.378000000000E-01
	O75	O	3.751000000000E-01	-4.440000000000E-01	-2.378000000000E-01
	O76	O	1.249000000000E-01	-5.600000000000E-02	-2.378000000000E-01
	O77	O	-4.440000000000E-01	1.249000000000E-01	-2.378000000000E-01
	O78	O	-5.600000000000E-02	3.751000000000E-01	-2.378000000000E-01
	O79	O	4.440000000000E-01	-3.751000000000E-01	2.378000000000E-01
	O80	O	5.600000000000E-02	-1.249000000000E-01	2.378000000000E-01
	O81	O	1.249000000000E-01	-4.440000000000E-01	-2.378000000000E-01
	O82	O	3.751000000000E-01	-5.600000000000E-02	-2.378000000000E-01
	O83	O	-3.751000000000E-01	4.440000000000E-01	2.378000000000E-01
	O84	O	-1.249000000000E-01	5.600000000000E-02	2.378000000000E-01
	O85	O	4.440000000000E-01	-1.249000000000E-01	2.378000000000E-01
	O86	O	5.600000000000E-02	-3.751000000000E-01	2.378000000000E-01
	O87	O	-4.440000000000E-01	3.751000000000E-01	-2.378000000000E-01
	O88	O	-5.600000000000E-02	1.249000000000E-01	-2.378000000000E-01
	O89	O	-7.600000000000E-03	-4.924000000000E-01	3.300000000000E-01
	O90	O	-4.924000000000E-01	-7.600000000000E-03	3.300000000000E-01
	O91	O	4.924000000000E-01	4.924000000000E-01	-3.300000000000E-01
	O92	O	7.600000000000E-03	7.600000000000E-03	-3.300000000000E-01
	O93	O	4.924000000000E-01	7.600000000000E-03	-3.300000000000E-01
	O94	O	7.600000000000E-03	4.924000000000E-01	-3.300000000000E-01
	O95	O	-4.924000000000E-01	-4.924000000000E-01	3.300000000000E-01
	O96	O	-7.600000000000E-03	-7.600000000000E-03	3.300000000000E-01
	Si97	Si	6.580000000000E-02	-4.456000000000E-01	3.372000000000E-01
	Si98	Si	4.342000000000E-01	-5.440000000000E-02	3.372000000000E-01
	Si99	Si	-4.342000000000E-01	4.456000000000E-01	-3.372000000000E-01
	Si100	Si	-6.580000000000E-02	5.440000000000E-02	-3.372000000000E-01
	Si101	Si	4.456000000000E-01	-6.580000000000E-02	-3.372000000000E-01
	Si102	Si	5.440000000000E-02	-4.342000000000E-01	-3.372000000000E-01
	Si103	Si	-4.456000000000E-01	4.342000000000E-01	3.372000000000E-01
	Si104	Si	-5.440000000000E-02	6.580000000000E-02	3.372000000000E-01
	Si105	Si	-6.580000000000E-02	4.456000000000E-01	-3.372000000000E-01
	Si106	Si	-4.342000000000E-01	5.440000000000E-02	-3.372000000000E-01
	Si107	Si	4.342000000000E-01	-4.456000000000E-01	3.372000000000E-01
	Si108	Si	6.580000000000E-02	-5.440000000000E-02	3.372000000000E-01
	Si109	Si	-4.456000000000E-01	6.580000000000E-02	3.372000000000E-01
	Si110	Si	-5.440000000000E-02	4.342000000000E-01	3.372000000000E-01
	Si111	Si	4.456000000000E-01	-4.342000000000E-01	-3.372000000000E-01
	Si112	Si	5.440000000000E-02	-6.580000000000E-02	-3.372000000000E-01
	Si113	Si	-4.650000000000E-02	-3.344000000000E-01	-1.605000000000E-01
	Si114	Si	-4.535000000000E-01	-1.656000000000E-01	-1.605000000000E-01
	Si115	Si	4.535000000000E-01	3.344000000000E-01	1.605000000000E-01
	Si116	Si	4.650000000000E-02	1.656000000000E-01	1.605000000000E-01
	Si117	Si	3.344000000000E-01	4.650000000000E-02	1.605000000000E-01
	Si118	Si	1.656000000000E-01	4.535000000000E-01	1.605000000000E-01
	Si119	Si	-3.344000000000E-01	-4.535000000000E-01	-1.605000000000E-01
	Si120	Si	-1.656000000000E-01	-4.650000000000E-02	-1.605000000000E-01
	Si121	Si	4.650000000000E-02	3.344000000000E-01	1.605000000000E-01
	Si122	Si	4.535000000000E-01	1.656000000000E-01	1.605000000000E-01
	Si123	Si	-4.535000000000E-01	-3.344000000000E-01	-1.605000000000E-01
	Si124	Si	-4.650000000000E-02	-1.656000000000E-01	-1.605000000000E-01
	Si125	Si	-3.344000000000E-01	-4.650000000000E-02	-1.605000000000E-01
	Si126	Si	-1.656000000000E-01	-4.535000000000E-01	-1.605000000000E-01
	Si127	Si	3.344000000000E-01	4.535000000000E-01	1.605000000000E-01
	Si128	Si	1.656000000000E-01	4.650000000000E-02	1.605000000000E-01
	Si129	Si	6.420000000000E-02	-1.656000000000E-01	8.630000000000E-02
	Si130	Si	4.358000000000E-01	-3.344000000000E-01	8.630000000000E-02
	Si131	Si	-4.358000000000E-01	1.656000000000E-01	-8.630000000000E-02
	Si132	Si	-6.420000000000E-02	3.344000000000E-01	-8.630000000000E-02
	Si133	Si	1.656000000000E-01	-6.420000000000E-02	-8.630000000000E-02
	Si134	Si	3.344000000000E-01	-4.358000000000E-01	-8.630000000000E-02
	Si135	Si	-1.656000000000E-01	4.358000000000E-01	8.630000000000E-02
	Si136	Si	-3.344000000000E-01	6.420000000000E-02	8.630000000000E-02
	Si137	Si	-6.420000000000E-02	1.656000000000E-01	-8.630000000000E-02
	Si138	Si	-4.358000000000E-01	3.344000000000E-01	-8.630000000000E-02
	Si139	Si	4.358000000000E-01	-1.656000000000E-01	8.630000000000E-02
	Si140	Si	6.420000000000E-02	-3.344000000000E-01	8.630000000000E-02
	Si141	Si	-1.656000000000E-01	6.420000000000E-02	8.630000000000E-02
	Si142	Si	-3.344000000000E-01	4.358000000000E-01	8.630000000000E-02
	Si143	Si	1.656000000000E-01	-4.358000000000E-01	-8.630000000000E-02
	Si144	Si	3.344000000000E-01	-6.420000000000E-02	-8.630000000000E-02


data_ SBT
_chemical_name_common		'SBT'
_cell_length_a		16.89856122
_cell_length_b		16.89856122
_cell_length_c		16.89856122
_cell_angle_alpha		61.148266
_cell_angle_beta		61.148266
_cell_angle_gamma		61.148266
_space group_name_H-M_alt		'P 1'
_space_group_IT_number		1

loop_
	_atom_site_label
	_atom_site_type_symbol
	_atom_site_fract_x
	_atom_site_fract_y
	_atom_site_fract_z
	O1	O	-4.492000000000E-01	2.581000000000E-01	-4.492000000000E-01
	O2	O	-4.492000000000E-01	-4.492000000000E-01	2.581000000000E-01
	O3	O	2.581000000000E-01	-4.492000000000E-01	-4.492000000000E-01
	O4	O	-2.581000000000E-01	4.492000000000E-01	4.492000000000E-01
	O5	O	4.492000000000E-01	4.492000000000E-01	-2.581000000000E-01
	O6	O	4.492000000000E-01	-2.581000000000E-01	4.492000000000E-01
	O7	O	3.853500000000E-01	-3.945000000000E-01	3.853500000000E-01
	O8	O	3.853500000000E-01	3.853500000000E-01	-3.945000000000E-01
	O9	O	-3.945000000000E-01	3.853500000000E-01	3.853500000000E-01
	O10	O	3.945000000000E-01	-3.853500000000E-01	-3.853500000000E-01
	O11	O	-3.853500000000E-01	-3.853500000000E-01	3.945000000000E-01
	O12	O	-3.853500000000E-01	3.945000000000E-01	-3.853500000000E-01
	O13	O	2.025000000000E-01	4.126000000000E-01	-2.980000000000E-01
	O14	O	-2.980000000000E-01	2.025000000000E-01	4.126000000000E-01
	O15	O	4.126000000000E-01	-2.980000000000E-01	2.025000000000E-01
	O16	O	-4.126000000000E-01	-2.025000000000E-01	2.980000000000E-01
	O17	O	-2.025000000000E-01	2.980000000000E-01	-4.126000000000E-01
	O18	O	2.980000000000E-01	-4.126000000000E-01	-2.025000000000E-01
	O19	O	-2.025000000000E-01	-4.126000000000E-01	2.980000000000E-01
	O20	O	2.980000000000E-01	-2.025000000000E-01	-4.126000000000E-01
	O21	O	-4.126000000000E-01	2.980000000000E-01	-2.025000000000E-01
	O22	O	4.126000000000E-01	2.025000000000E-01	-2.980000000000E-01
	O23	O	2.025000000000E-01	-2.980000000000E-01	4.126000000000E-01
	O24	O	-2.980000000000E-01	4.126000000000E-01	2.025000000000E-01
	O25	O	-2.918500000000E-01	2.918500000000E-01	-5.000000000000E-01
	O26	O	-5.000000000000E-01	-2.918500000000E-01	2.918500000000E-01
	O27	O	2.918500000000E-01	-5.000000000000E-01	-2.918500000000E-01
	O28	O	2.918500000000E-01	-2.918500000000E-01	-5.000000000000E-01
	O29	O	5.000000000000E-01	2.918500000000E-01	-2.918500000000E-01
	O30	O	-2.918500000000E-01	-5.000000000000E-01	2.918500000000E-01
	O31	O	-4.310000000000E-01	-1.368000000000E-01	-4.310000000000E-01
	O32	O	-4.310000000000E-01	-4.310000000000E-01	-1.368000000000E-01
	O33	O	-1.368000000000E-01	-4.310000000000E-01	-4.310000000000E-01
	O34	O	1.368000000000E-01	4.310000000000E-01	4.310000000000E-01
	O35	O	4.310000000000E-01	4.310000000000E-01	1.368000000000E-01
	O36	O	4.310000000000E-01	1.368000000000E-01	4.310000000000E-01
	O37	O	-1.607000000000E-01	-3.756100000000E-01	4.052000000000E-01
	O38	O	4.052000000000E-01	-1.607000000000E-01	-3.756100000000E-01
	O39	O	-3.756100000000E-01	4.052000000000E-01	-1.607000000000E-01
	O40	O	3.756100000000E-01	1.607000000000E-01	-4.052000000000E-01
	O41	O	1.607000000000E-01	-4.052000000000E-01	3.756100000000E-01
	O42	O	-4.052000000000E-01	3.756100000000E-01	1.607000000000E-01
	O43	O	1.607000000000E-01	3.756100000000E-01	-4.052000000000E-01
	O44	O	-4.052000000000E-01	1.607000000000E-01	3.756100000000E-01
	O45	O	3.756100000000E-01	-4.052000000000E-01	1.607000000000E-01
	O46	O	-3.756100000000E-01	-1.607000000000E-01	4.052000000000E-01
	O47	O	-1.607000000000E-01	4.052000000000E-01	-3.756100000000E-01
	O48	O	4.052000000000E-01	-3.756100000000E-01	-1.607000000000E-01
	O49	O	-2.700000000000E-01	-4.825100000000E-01	-2.700000000000E-01
	O50	O	-2.700000000000E-01	-2.700000000000E-01	-4.825100000000E-01
	O51	O	-4.825100000000E-01	-2.700000000000E-01	-2.700000000000E-01
	O52	O	4.825100000000E-01	2.700000000000E-01	2.700000000000E-01
	O53	O	2.700000000000E-01	2.700000000000E-01	4.825100000000E-01
	O54	O	2.700000000000E-01	4.825100000000E-01	2.700000000000E-01
	O55	O	-8.910000000000E-02	-2.832000000000E-01	4.281000000000E-01
	O56	O	4.281000000000E-01	-8.910000000000E-02	-2.832000000000E-01
	O57	O	-2.832000000000E-01	4.281000000000E-01	-8.910000000000E-02
	O58	O	2.832000000000E-01	8.910000000000E-02	-4.281000000000E-01
	O59	O	8.910000000000E-02	-4.281000000000E-01	2.832000000000E-01
	O60	O	-4.281000000000E-01	2.832000000000E-01	8.910000000000E-02
	O61	O	8.910000000000E-02	2.832000000000E-01	-4.281000000000E-01
	O62	O	-4.281000000000E-01	8.910000000000E-02	2.832000000000E-01
	O63	O	2.832000000000E-01	-4.281000000000E-01	8.910000000000E-02
	O64	O	-2.832000000000E-01	-8.910000000000E-02	4.281000000000E-01
	O65	O	-8.910000000000E-02	4.281000000000E-01	-2.832000000000E-01
	O66	O	4.281000000000E-01	-2.832000000000E-01	-8.910000000000E-02
	O67	O	5.840000000000E-02	3.493000000000E-01	-2.238000000000E-01
	O68	O	-2.238000000000E-01	5.840000000000E-02	3.493000000000E-01
	O69	O	3.493000000000E-01	-2.238000000000E-01	5.840000000000E-02
	O70	O	-3.493000000000E-01	-5.840000000000E-02	2.238000000000E-01
	O71	O	-5.840000000000E-02	2.238000000000E-01	-3.493000000000E-01
	O72	O	2.238000000000E-01	-3.493000000000E-01	-5.840000000000E-02
	O73	O	-5.840000000000E-02	-3.493000000000E-01	2.238000000000E-01
	O74	O	2.238000000000E-01	-5.840000000000E-02	-3.493000000000E-01
	O75	O	-3.493000000000E-01	2.238000000000E-01	-5.840000000000E-02
	O76	O	3.493000000000E-01	5.840000000000E-02	-2.238000000000E-01
	O77	O	5.840000000000E-02	-2.238000000000E-01	3.493000000000E-01
	O78	O	-2.238000000000E-01	3.493000000000E-01	5.840000000000E-02
	O79	O	2.429000000000E-01	-2.429000000000E-01	7.968359913618E-17
	O80	O	2.011451113448E-17	2.429000000000E-01	-2.429000000000E-01
	O81	O	-2.429000000000E-01	-1.211331429995E-17	2.429000000000E-01
	O82	O	-2.429000000000E-01	2.429000000000E-01	-1.500967736147E-17
	O83	O	-2.011451113448E-17	-2.429000000000E-01	2.429000000000E-01
	O84	O	2.429000000000E-01	1.211331429995E-17	-2.429000000000E-01
	O85	O	-1.045000000000E-01	3.182000000000E-01	-1.045000000000E-01
	O86	O	-1.045000000000E-01	-1.045000000000E-01	3.182000000000E-01
	O87	O	3.182000000000E-01	-1.045000000000E-01	-1.045000000000E-01
	O88	O	-3.182000000000E-01	1.045000000000E-01	1.045000000000E-01
	O89	O	1.045000000000E-01	1.045000000000E-01	-3.182000000000E-01
	O90	O	1.045000000000E-01	-3.182000000000E-01	1.045000000000E-01
	O91	O	2.348000000000E-01	-2.731000000000E-01	2.348000000000E-01
	O92	O	2.348000000000E-01	2.348000000000E-01	-2.731000000000E-01
	O93	O	-2.731000000000E-01	2.348000000000E-01	2.348000000000E-01
	O94	O	2.731000000000E-01	-2.348000000000E-01	-2.348000000000E-01
	O95	O	-2.348000000000E-01	-2.348000000000E-01	2.731000000000E-01
	O96	O	-2.348000000000E-01	2.731000000000E-01	-2.348000000000E-01
	Si97	Si	2.844000000000E-01	4.622000000000E-01	-3.584000000000E-01
	Si98	Si	-3.584000000000E-01	2.844000000000E-01	4.622000000000E-01
	Si99	Si	4.622000000000E-01	-3.584000000000E-01	2.844000000000E-01
	Si100	Si	-4.622000000000E-01	-2.844000000000E-01	3.584000000000E-01
	Si101	Si	-2.844000000000E-01	3.584000000000E-01	-4.622000000000E-01
	Si102	Si	3.584000000000E-01	-4.622000000000E-01	-2.844000000000E-01
	Si103	Si	-2.844000000000E-01	-4.622000000000E-01	3.584000000000E-01
	Si104	Si	3.584000000000E-01	-2.844000000000E-01	-4.622000000000E-01
	Si105	Si	-4.622000000000E-01	3.584000000000E-01	-2.844000000000E-01
	Si106	Si	4.622000000000E-01	2.844000000000E-01	-3.584000000000E-01
	Si107	Si	2.844000000000E-01	-3.584000000000E-01	4.622000000000E-01
	Si108	Si	-3.584000000000E-01	4.622000000000E-01	2.844000000000E-01
	Si109	Si	-3.410000000000E-02	3.347000000000E-01	-2.133000000000E-01
	Si110	Si	-2.133000000000E-01	-3.410000000000E-02	3.347000000000E-01
	Si111	Si	3.347000000000E-01	-2.133000000000E-01	-3.410000000000E-02
	Si112	Si	-3.347000000000E-01	3.410000000000E-02	2.133000000000E-01
	Si113	Si	3.410000000000E-02	2.133000000000E-01	-3.347000000000E-01
	Si114	Si	2.133000000000E-01	-3.347000000000E-01	3.410000000000E-02
	Si115	Si	3.410000000000E-02	-3.347000000000E-01	2.133000000000E-01
	Si116	Si	2.133000000000E-01	3.410000000000E-02	-3.347000000000E-01
	Si117	Si	-3.347000000000E-01	2.133000000000E-01	3.410000000000E-02
	Si118	Si	3.347000000000E-01	-3.410000000000E-02	-2.133000000000E-01
	Si119	Si	-3.410000000000E-02	-2.133000000000E-01	3.347000000000E-01
	Si120	Si	-2.133000000000E-01	3.347000000000E-01	-3.410000000000E-02
	Si121	Si	-3.000000000000E-01	3.431000000000E-01	1.642000000000E-01
	Si122	Si	1.642000000000E-01	-3.000000000000E-01	3.431000000000E-01
	Si123	Si	3.431000000000E-01	1.642000000000E-01	-3.000000000000E-01
	Si124	Si	-3.431000000000E-01	3.000000000000E-01	-1.642000000000E-01
	Si125	Si	3.000000000000E-01	-1.642000000000E-01	-3.431000000000E-01
	Si126	Si	-1.642000000000E-01	-3.431000000000E-01	3.000000000000E-01
	Si127	Si	3.000000000000E-01	-3.431000000000E-01	-1.642000000000E-01
	Si128	Si	-1.642000000000E-01	3.000000000000E-01	-3.431000000000E-01
	Si129	Si	-3.431000000000E-01	-1.642000000000E-01	3.000000000000E-01
	Si130	Si	3.431000000000E-01	-3.000000000000E-01	1.642000000000E-01
	Si131	Si	-3.000000000000E-01	1.642000000000E-01	3.431000000000E-01
	Si132	Si	1.642000000000E-01	3.431000000000E-01	-3.000000000000E-01
	Si133	Si	-1.640000000000E-01	-3.402100000000E-01	4.799000000000E-01
	Si134	Si	4.799000000000E-01	-1.640000000000E-01	-3.402100000000E-01
	Si135	Si	-3.402100000000E-01	4.799000000000E-01	-1.640000000000E-01
	Si136	Si	3.402100000000E-01	1.640000000000E-01	-4.799000000000E-01
	Si137	Si	1.640000000000E-01	-4.799000000000E-01	3.402100000000E-01
	Si138	Si	-4.799000000000E-01	3.402100000000E-01	1.640000000000E-01
	Si139	Si	1.640000000000E-01	3.402100000000E-01	-4.799000000000E-01
	Si140	Si	-4.799000000000E-01	1.640000000000E-01	3.402100000000E-01
	Si141	Si	3.402100000000E-01	-4.799000000000E-01	1.640000000000E-01
	Si142	Si	-3.402100000000E-01	-1.640000000000E-01	4.799000000000E-01
	Si143	Si	-1.640000000000E-01	4.799000000000E-01	-3.402100000000E-01
	Si144	Si	4.799000000000E-01	-3.402100000000E-01	-1.640000000000E-01


data_ SFF
_chemical_name_common		'SFF'
_cell_length_a		11.45400000
_cell_length_b		21.69500000
_cell_length_c		7.22700000
_cell_angle_alpha		90.000000
_cell_angle_beta		93.154000
_cell_angle_gamma		90.000000
_space group_name_H-M_alt		'P 1'
_space_group_IT_number		1

loop_
	_atom_site_label
	_atom_site_type_symbol
	_atom_site_fract_x
	_atom_site_fract_y
	_atom_site_fract_z
	O1	O	2.250000000000E-01	-7.520000000000E-02	9.700000000000E-03
	O2	O	-2.250000000000E-01	4.248000000000E-01	-9.700000000000E-03
	O3	O	-2.250000000000E-01	7.520000000000E-02	-9.700000000000E-03
	O4	O	2.250000000000E-01	-4.248000000000E-01	9.700000000000E-03
	O5	O	3.203000000000E-01	-2.420000000000E-02	-2.750000000000E-01
	O6	O	-3.203000000000E-01	4.758000000000E-01	2.750000000000E-01
	O7	O	-3.203000000000E-01	2.420000000000E-02	2.750000000000E-01
	O8	O	3.203000000000E-01	-4.758000000000E-01	-2.750000000000E-01
	O9	O	3.589000000000E-01	2.180000000000E-02	6.140000000000E-02
	O10	O	-3.589000000000E-01	-4.782000000000E-01	-6.140000000000E-02
	O11	O	-3.589000000000E-01	-2.180000000000E-02	-6.140000000000E-02
	O12	O	3.589000000000E-01	4.782000000000E-01	6.140000000000E-02
	O13	O	1.523000000000E-01	3.340000000000E-02	-1.098000000000E-01
	O14	O	-1.523000000000E-01	-4.666000000000E-01	1.098000000000E-01
	O15	O	-1.523000000000E-01	-3.340000000000E-02	1.098000000000E-01
	O16	O	1.523000000000E-01	4.666000000000E-01	-1.098000000000E-01
	O17	O	2.860000000000E-02	-3.921000000000E-01	1.544000000000E-01
	O18	O	-2.860000000000E-02	1.079000000000E-01	-1.544000000000E-01
	O19	O	-2.860000000000E-02	3.921000000000E-01	-1.544000000000E-01
	O20	O	2.860000000000E-02	-1.079000000000E-01	1.544000000000E-01
	O21	O	2.241000000000E-01	-3.327000000000E-01	2.451000000000E-01
	O22	O	-2.241000000000E-01	1.673000000000E-01	-2.451000000000E-01
	O23	O	-2.241000000000E-01	3.327000000000E-01	-2.451000000000E-01
	O24	O	2.241000000000E-01	-1.673000000000E-01	2.451000000000E-01
	O25	O	1.226000000000E-01	-3.210000000000E-01	-8.990000000000E-02
	O26	O	-1.226000000000E-01	1.790000000000E-01	8.990000000000E-02
	O27	O	-1.226000000000E-01	3.210000000000E-01	8.990000000000E-02
	O28	O	1.226000000000E-01	-1.790000000000E-01	-8.990000000000E-02
	O29	O	2.735000000000E-01	-2.500000000000E-01	-4.969000000000E-01
	O30	O	-2.735000000000E-01	2.500000000000E-01	4.969000000000E-01
	O31	O	3.266000000000E-01	-3.666000000000E-01	-4.350000000000E-01
	O32	O	-3.266000000000E-01	1.334000000000E-01	4.350000000000E-01
	O33	O	-3.266000000000E-01	3.666000000000E-01	4.350000000000E-01
	O34	O	3.266000000000E-01	-1.334000000000E-01	-4.350000000000E-01
	O35	O	1.071000000000E-01	-3.312000000000E-01	-4.527000000000E-01
	O36	O	-1.071000000000E-01	1.688000000000E-01	4.527000000000E-01
	O37	O	-1.071000000000E-01	3.312000000000E-01	4.527000000000E-01
	O38	O	1.071000000000E-01	-1.688000000000E-01	-4.527000000000E-01
	O39	O	3.857000000000E-01	-4.656000000000E-01	3.834000000000E-01
	O40	O	-3.857000000000E-01	3.440000000000E-02	-3.834000000000E-01
	O41	O	-3.857000000000E-01	4.656000000000E-01	-3.834000000000E-01
	O42	O	3.857000000000E-01	-3.440000000000E-02	3.834000000000E-01
	O43	O	-4.779000000000E-01	-4.249000000000E-01	-3.392000000000E-01
	O44	O	4.779000000000E-01	7.510000000000E-02	3.392000000000E-01
	O45	O	4.779000000000E-01	4.249000000000E-01	3.392000000000E-01
	O46	O	-4.779000000000E-01	-7.510000000000E-02	-3.392000000000E-01
	O47	O	-6.590000000000E-02	-3.691000000000E-01	-2.577000000000E-01
	O48	O	6.590000000000E-02	1.309000000000E-01	2.577000000000E-01
	O49	O	6.590000000000E-02	3.691000000000E-01	2.577000000000E-01
	O50	O	-6.590000000000E-02	-1.309000000000E-01	-2.577000000000E-01
	O51	O	-2.150000000000E-02	-2.500000000000E-01	-2.872000000000E-01
	O52	O	2.150000000000E-02	2.500000000000E-01	2.872000000000E-01
	O53	O	-5.250000000000E-02	-1.010000000000E-02	-2.278000000000E-01
	O54	O	5.250000000000E-02	4.899000000000E-01	2.278000000000E-01
	O55	O	5.250000000000E-02	1.010000000000E-02	2.278000000000E-01
	O56	O	-5.250000000000E-02	-4.899000000000E-01	-2.278000000000E-01
	O57	O	6.770000000000E-02	6.130000000000E-02	-4.441000000000E-01
	O58	O	-6.770000000000E-02	-4.387000000000E-01	4.441000000000E-01
	O59	O	-6.770000000000E-02	-6.130000000000E-02	4.441000000000E-01
	O60	O	6.770000000000E-02	4.387000000000E-01	-4.441000000000E-01
	O61	O	2.495000000000E-01	6.270000000000E-02	3.482000000000E-01
	O62	O	-2.495000000000E-01	-4.373000000000E-01	-3.482000000000E-01
	O63	O	-2.495000000000E-01	-6.270000000000E-02	-3.482000000000E-01
	O64	O	2.495000000000E-01	4.373000000000E-01	3.482000000000E-01
	Si65	Si	2.643000000000E-01	-1.100000000000E-02	-7.950000000000E-02
	Si66	Si	-2.643000000000E-01	4.890000000000E-01	7.950000000000E-02
	Si67	Si	-2.643000000000E-01	1.100000000000E-02	7.950000000000E-02
	Si68	Si	2.643000000000E-01	-4.890000000000E-01	-7.950000000000E-02
	Si69	Si	1.502000000000E-01	-3.676000000000E-01	8.040000000000E-02
	Si70	Si	-1.502000000000E-01	1.324000000000E-01	-8.040000000000E-02
	Si71	Si	-1.502000000000E-01	3.676000000000E-01	-8.040000000000E-02
	Si72	Si	1.502000000000E-01	-1.324000000000E-01	8.040000000000E-02
	Si73	Si	2.333000000000E-01	-3.202000000000E-01	4.650000000000E-01
	Si74	Si	-2.333000000000E-01	1.798000000000E-01	-4.650000000000E-01
	Si75	Si	-2.333000000000E-01	3.202000000000E-01	-4.650000000000E-01
	Si76	Si	2.333000000000E-01	-1.798000000000E-01	4.650000000000E-01
	Si77	Si	3.882000000000E-01	-4.331000000000E-01	-4.161000000000E-01
	Si78	Si	-3.882000000000E-01	6.690000000000E-02	4.161000000000E-01
	Si79	Si	-3.882000000000E-01	4.331000000000E-01	4.161000000000E-01
	Si80	Si	3.882000000000E-01	-6.690000000000E-02	-4.161000000000E-01
	Si81	Si	3.500000000000E-02	-3.180000000000E-01	-2.718000000000E-01
	Si82	Si	-3.500000000000E-02	1.820000000000E-01	2.718000000000E-01
	Si83	Si	-3.500000000000E-02	3.180000000000E-01	2.718000000000E-01
	Si84	Si	3.500000000000E-02	-1.820000000000E-01	-2.718000000000E-01
	Si85	Si	3.470000000000E-02	4.800000000000E-02	-2.344000000000E-01
	Si86	Si	-3.470000000000E-02	-4.520000000000E-01	2.344000000000E-01
	Si87	Si	-3.470000000000E-02	-4.800000000000E-02	2.344000000000E-01
	Si88	Si	3.470000000000E-02	4.520000000000E-01	-2.344000000000E-01
	Si89	Si	1.092000000000E-01	6.630000000000E-02	3.473000000000E-01
	Si90	Si	-1.092000000000E-01	-4.337000000000E-01	-3.473000000000E-01
	Si91	Si	-1.092000000000E-01	-6.630000000000E-02	-3.473000000000E-01
	Si92	Si	1.092000000000E-01	4.337000000000E-01	3.473000000000E-01
	Si93	Si	3.679000000000E-01	3.150000000000E-02	2.828000000000E-01
	Si94	Si	-3.679000000000E-01	-4.685000000000E-01	-2.828000000000E-01
	Si95	Si	-3.679000000000E-01	-3.150000000000E-02	-2.828000000000E-01
	Si96	Si	3.679000000000E-01	4.685000000000E-01	2.828000000000E-01


data_ SFH
_chemical_name_common		'SFH'
_cell_length_a		17.35949874
_cell_length_b		17.35949874
_cell_length_c		21.51800000
_cell_angle_alpha		90.000000
_cell_angle_beta		90.000000
_cell_angle_gamma		17.411272
_space group_name_H-M_alt		'P 1'
_space_group_IT_number		1

loop_
	_atom_site_label
	_atom_site_type_symbol
	_atom_site_fract_x
	_atom_site_fract_y
	_atom_site_fract_z
	O1	O	5.090000000000E-02	5.090000000000E-02	-5.320000000000E-02
	O2	O	-5.090000000000E-02	-5.090000000000E-02	4.468000000000E-01
	O3	O	-5.090000000000E-02	-5.090000000000E-02	5.320000000000E-02
	O4	O	5.090000000000E-02	5.090000000000E-02	-4.468000000000E-01
	O5	O	3.389000000000E-01	-1.609000000000E-01	3.360000000000E-02
	O6	O	-3.389000000000E-01	1.609000000000E-01	-4.664000000000E-01
	O7	O	1.609000000000E-01	-3.389000000000E-01	-3.360000000000E-02
	O8	O	-1.609000000000E-01	3.389000000000E-01	4.664000000000E-01
	O9	O	-3.389000000000E-01	1.609000000000E-01	-3.360000000000E-02
	O10	O	3.389000000000E-01	-1.609000000000E-01	4.664000000000E-01
	O11	O	-1.609000000000E-01	3.389000000000E-01	3.360000000000E-02
	O12	O	1.609000000000E-01	-3.389000000000E-01	-4.664000000000E-01
	O13	O	2.540000000000E-02	2.540000000000E-02	6.230000000000E-02
	O14	O	-2.540000000000E-02	-2.540000000000E-02	-4.377000000000E-01
	O15	O	-2.540000000000E-02	-2.540000000000E-02	-6.230000000000E-02
	O16	O	2.540000000000E-02	2.540000000000E-02	4.377000000000E-01
	O17	O	4.555000000000E-01	-4.450000000000E-02	-3.490000000000E-02
	O18	O	-4.555000000000E-01	4.450000000000E-02	4.651000000000E-01
	O19	O	4.450000000000E-02	-4.555000000000E-01	3.490000000000E-02
	O20	O	-4.450000000000E-02	4.555000000000E-01	-4.651000000000E-01
	O21	O	-4.555000000000E-01	4.450000000000E-02	3.490000000000E-02
	O22	O	4.555000000000E-01	-4.450000000000E-02	-4.651000000000E-01
	O23	O	-4.450000000000E-02	4.555000000000E-01	-3.490000000000E-02
	O24	O	4.450000000000E-02	-4.555000000000E-01	4.651000000000E-01
	O25	O	-2.697000000000E-01	-2.697000000000E-01	6.300000000000E-02
	O26	O	2.697000000000E-01	2.697000000000E-01	-4.370000000000E-01
	O27	O	2.697000000000E-01	2.697000000000E-01	-6.300000000000E-02
	O28	O	-2.697000000000E-01	-2.697000000000E-01	4.370000000000E-01
	O29	O	-3.447000000000E-01	-3.447000000000E-01	3.360000000000E-02
	O30	O	3.447000000000E-01	3.447000000000E-01	-4.664000000000E-01
	O31	O	3.447000000000E-01	3.447000000000E-01	-3.360000000000E-02
	O32	O	-3.447000000000E-01	-3.447000000000E-01	4.664000000000E-01
	O33	O	4.206000000000E-01	4.206000000000E-01	1.777000000000E-01
	O34	O	-4.206000000000E-01	-4.206000000000E-01	-3.223000000000E-01
	O35	O	-4.206000000000E-01	-4.206000000000E-01	-1.777000000000E-01
	O36	O	4.206000000000E-01	4.206000000000E-01	3.223000000000E-01
	O37	O	-3.944000000000E-01	1.058000000000E-01	1.581000000000E-01
	O38	O	3.944000000000E-01	-1.058000000000E-01	-3.419000000000E-01
	O39	O	-1.058000000000E-01	3.944000000000E-01	-1.581000000000E-01
	O40	O	1.058000000000E-01	-3.944000000000E-01	3.419000000000E-01
	O41	O	3.944000000000E-01	-1.058000000000E-01	-1.581000000000E-01
	O42	O	-3.944000000000E-01	1.058000000000E-01	3.419000000000E-01
	O43	O	1.058000000000E-01	-3.944000000000E-01	1.581000000000E-01
	O44	O	-1.058000000000E-01	3.944000000000E-01	-3.419000000000E-01
	O45	O	3.892000000000E-01	3.892000000000E-01	6.630000000000E-02
	O46	O	-3.892000000000E-01	-3.892000000000E-01	-4.337000000000E-01
	O47	O	-3.892000000000E-01	-3.892000000000E-01	-6.630000000000E-02
	O48	O	3.892000000000E-01	3.892000000000E-01	4.337000000000E-01
	O49	O	-2.094000000000E-01	-2.094000000000E-01	1.395000000000E-01
	O50	O	2.094000000000E-01	2.094000000000E-01	-3.605000000000E-01
	O51	O	2.094000000000E-01	2.094000000000E-01	-1.395000000000E-01
	O52	O	-2.094000000000E-01	-2.094000000000E-01	3.605000000000E-01
	O53	O	2.664000000000E-01	-2.334000000000E-01	-3.559000000000E-01
	O54	O	-2.664000000000E-01	2.334000000000E-01	1.441000000000E-01
	O55	O	2.334000000000E-01	-2.664000000000E-01	3.559000000000E-01
	O56	O	-2.334000000000E-01	2.664000000000E-01	-1.441000000000E-01
	O57	O	-2.664000000000E-01	2.334000000000E-01	3.559000000000E-01
	O58	O	2.664000000000E-01	-2.334000000000E-01	-1.441000000000E-01
	O59	O	-2.334000000000E-01	2.664000000000E-01	-3.559000000000E-01
	O60	O	2.334000000000E-01	-2.664000000000E-01	1.441000000000E-01
	O61	O	-1.778000000000E-01	-1.778000000000E-01	2.500000000000E-01
	O62	O	1.778000000000E-01	1.778000000000E-01	-2.500000000000E-01
	O63	O	4.821000000000E-01	4.821000000000E-01	2.500000000000E-01
	O64	O	-4.821000000000E-01	-4.821000000000E-01	-2.500000000000E-01
	Si65	Si	6.350000000000E-02	6.350000000000E-02	1.890000000000E-02
	Si66	Si	-6.350000000000E-02	-6.350000000000E-02	-4.811000000000E-01
	Si67	Si	-6.350000000000E-02	-6.350000000000E-02	-1.890000000000E-02
	Si68	Si	6.350000000000E-02	6.350000000000E-02	4.811000000000E-01
	Si69	Si	-3.009000000000E-01	-3.009000000000E-01	7.000000000000E-03
	Si70	Si	3.009000000000E-01	3.009000000000E-01	-4.930000000000E-01
	Si71	Si	3.009000000000E-01	3.009000000000E-01	-7.000000000000E-03
	Si72	Si	-3.009000000000E-01	-3.009000000000E-01	4.930000000000E-01
	Si73	Si	3.802000000000E-01	3.802000000000E-01	1.397000000000E-01
	Si74	Si	-3.802000000000E-01	-3.802000000000E-01	-3.603000000000E-01
	Si75	Si	-3.802000000000E-01	-3.802000000000E-01	-1.397000000000E-01
	Si76	Si	3.802000000000E-01	3.802000000000E-01	3.603000000000E-01
	Si77	Si	-2.229000000000E-01	-2.229000000000E-01	6.780000000000E-02
	Si78	Si	2.229000000000E-01	2.229000000000E-01	-4.322000000000E-01
	Si79	Si	2.229000000000E-01	2.229000000000E-01	-6.780000000000E-02
	Si80	Si	-2.229000000000E-01	-2.229000000000E-01	4.322000000000E-01
	Si81	Si	1.480000000000E-02	1.480000000000E-02	-3.990000000000E-01
	Si82	Si	-1.480000000000E-02	-1.480000000000E-02	1.010000000000E-01
	Si83	Si	-1.480000000000E-02	-1.480000000000E-02	3.990000000000E-01
	Si84	Si	1.480000000000E-02	1.480000000000E-02	-1.010000000000E-01
	Si85	Si	3.889000000000E-01	3.889000000000E-01	-8.400000000000E-03
	Si86	Si	-3.889000000000E-01	-3.889000000000E-01	4.916000000000E-01
	Si87	Si	-3.889000000000E-01	-3.889000000000E-01	8.400000000000E-03
	Si88	Si	3.889000000000E-01	3.889000000000E-01	-4.916000000000E-01
	Si89	Si	-1.687000000000E-01	-1.687000000000E-01	1.767000000000E-01
	Si90	Si	1.687000000000E-01	1.687000000000E-01	-3.233000000000E-01
	Si91	Si	1.687000000000E-01	1.687000000000E-01	-1.767000000000E-01
	Si92	Si	-1.687000000000E-01	-1.687000000000E-01	3.233000000000E-01
	Si93	Si	4.675000000000E-01	4.675000000000E-01	1.788000000000E-01
	Si94	Si	-4.675000000000E-01	-4.675000000000E-01	-3.212000000000E-01
	Si95	Si	-4.675000000000E-01	-4.675000000000E-01	-1.788000000000E-01
	Si96	Si	4.675000000000E-01	4.675000000000E-01	3.212000000000E-01


data_ SFN
_chemical_name_common		'SFN'
_cell_length_a		12.88142439
_cell_length_b		12.88142439
_cell_length_c		30.04400000
_cell_angle_alpha		76.407808
_cell_angle_beta		103.592192
_cell_angle_gamma		156.456346
_space group_name_H-M_alt		'P 1'
_space_group_IT_number		1

loop_
	_atom_site_label
	_atom_site_type_symbol
	_atom_site_fract_x
	_atom_site_fract_y
	_atom_site_fract_z
	O1	O	-1.320000000000E-02	1.320000000000E-02	-2.011000000000E-01
	O2	O	1.320000000000E-02	-1.320000000000E-02	2.011000000000E-01
	O3	O	-1.824000000000E-01	-3.178000000000E-01	-1.475500000000E-01
	O4	O	-3.178000000000E-01	-1.824000000000E-01	1.475500000000E-01
	O5	O	1.824000000000E-01	3.178000000000E-01	1.475500000000E-01
	O6	O	3.178000000000E-01	1.824000000000E-01	-1.475500000000E-01
	O7	O	8.400000000000E-02	-8.400000000000E-02	-2.188500000000E-01
	O8	O	-8.400000000000E-02	8.400000000000E-02	2.188500000000E-01
	O9	O	3.554000000000E-01	1.446000000000E-01	2.116500000000E-01
	O10	O	1.446000000000E-01	3.554000000000E-01	-2.116500000000E-01
	O11	O	-3.554000000000E-01	-1.446000000000E-01	-2.116500000000E-01
	O12	O	-1.446000000000E-01	-3.554000000000E-01	2.116500000000E-01
	O13	O	-3.299000000000E-01	3.299000000000E-01	1.707000000000E-01
	O14	O	3.299000000000E-01	-3.299000000000E-01	-1.707000000000E-01
	O15	O	9.200000000000E-03	4.908000000000E-01	1.660000000000E-01
	O16	O	4.908000000000E-01	9.200000000000E-03	-1.660000000000E-01
	O17	O	-9.200000000000E-03	-4.908000000000E-01	-1.660000000000E-01
	O18	O	-4.908000000000E-01	-9.200000000000E-03	1.660000000000E-01
	O19	O	-2.962000000000E-01	2.962000000000E-01	9.445000000000E-02
	O20	O	2.962000000000E-01	-2.962000000000E-01	-9.445000000000E-02
	O21	O	-3.649000000000E-01	3.649000000000E-01	-8.215000000000E-02
	O22	O	3.649000000000E-01	-3.649000000000E-01	8.215000000000E-02
	O23	O	-3.498000000000E-01	3.498000000000E-01	-1.660000000000E-01
	O24	O	3.498000000000E-01	-3.498000000000E-01	1.660000000000E-01
	O25	O	-3.101000000000E-01	3.101000000000E-01	2.607500000000E-01
	O26	O	3.101000000000E-01	-3.101000000000E-01	-2.607500000000E-01
	O27	O	-3.084000000000E-01	3.084000000000E-01	4.400000000000E-03
	O28	O	3.084000000000E-01	-3.084000000000E-01	-4.400000000000E-03
	O29	O	4.773000000000E-01	2.250000000000E-02	-5.825000000000E-02
	O30	O	2.250000000000E-02	4.773000000000E-01	5.825000000000E-02
	O31	O	-4.773000000000E-01	-2.250000000000E-02	5.825000000000E-02
	O32	O	-2.250000000000E-02	-4.773000000000E-01	-5.825000000000E-02
	Si33	Si	5.150000000000E-02	-5.150000000000E-02	-1.788000000000E-01
	Si34	Si	-5.150000000000E-02	5.150000000000E-02	1.788000000000E-01
	Si35	Si	7.700000000000E-02	-7.700000000000E-02	2.264500000000E-01
	Si36	Si	-7.700000000000E-02	7.700000000000E-02	-2.264500000000E-01
	Si37	Si	-2.770000000000E-01	2.770000000000E-01	1.496500000000E-01
	Si38	Si	2.770000000000E-01	-2.770000000000E-01	-1.496500000000E-01
	Si39	Si	-3.946000000000E-01	3.946000000000E-01	-1.359000000000E-01
	Si40	Si	3.946000000000E-01	-3.946000000000E-01	1.359000000000E-01
	Si41	Si	-3.572000000000E-01	3.572000000000E-01	2.139000000000E-01
	Si42	Si	3.572000000000E-01	-3.572000000000E-01	-2.139000000000E-01
	Si43	Si	-2.947000000000E-01	2.947000000000E-01	-1.840500000000E-01
	Si44	Si	2.947000000000E-01	-2.947000000000E-01	1.840500000000E-01
	Si45	Si	-3.047000000000E-01	3.047000000000E-01	-4.840000000000E-02
	Si46	Si	3.047000000000E-01	-3.047000000000E-01	4.840000000000E-02
	Si47	Si	-2.652000000000E-01	2.652000000000E-01	5.345000000000E-02
	Si48	Si	2.652000000000E-01	-2.652000000000E-01	-5.345000000000E-02
	O49	O	1.320000000000E-02	-1.320000000000E-02	-2.989000000000E-01
	O50	O	-3.101000000000E-01	3.101000000000E-01	-2.392500000000E-01
	O51	O	-3.299000000000E-01	3.299000000000E-01	-3.293000000000E-01
	O52	O	3.101000000000E-01	-3.101000000000E-01	2.392500000000E-01
	O53	O	8.400000000000E-02	-8.400000000000E-02	2.811500000000E-01
	O54	O	-3.084000000000E-01	3.084000000000E-01	-4.956000000000E-01
	O55	O	3.299000000000E-01	-3.299000000000E-01	3.293000000000E-01
	O56	O	3.084000000000E-01	-3.084000000000E-01	4.956000000000E-01
	O57	O	-3.178000000000E-01	-1.824000000000E-01	-3.524500000000E-01
	O58	O	4.773000000000E-01	2.250000000000E-02	4.417500000000E-01
	O59	O	9.200000000000E-03	4.908000000000E-01	-3.340000000000E-01
	O60	O	2.250000000000E-02	4.773000000000E-01	-4.417500000000E-01
	O61	O	-8.400000000000E-02	8.400000000000E-02	-2.811500000000E-01
	O62	O	-4.773000000000E-01	-2.250000000000E-02	-4.417500000000E-01
	O63	O	4.908000000000E-01	9.200000000000E-03	3.340000000000E-01
	O64	O	-2.250000000000E-02	-4.773000000000E-01	4.417500000000E-01
	O65	O	-1.320000000000E-02	1.320000000000E-02	2.989000000000E-01
	Si66	Si	5.150000000000E-02	-5.150000000000E-02	3.212000000000E-01
	O67	O	-9.200000000000E-03	-4.908000000000E-01	3.340000000000E-01
	Si68	Si	-5.150000000000E-02	5.150000000000E-02	-3.212000000000E-01
	O69	O	3.554000000000E-01	1.446000000000E-01	-2.883500000000E-01
	Si70	Si	7.700000000000E-02	-7.700000000000E-02	-2.735500000000E-01
	O71	O	-4.908000000000E-01	-9.200000000000E-03	-3.340000000000E-01
	Si72	Si	-7.700000000000E-02	7.700000000000E-02	2.735500000000E-01
	O73	O	1.824000000000E-01	3.178000000000E-01	-3.524500000000E-01
	Si74	Si	-2.770000000000E-01	2.770000000000E-01	-3.503500000000E-01
	O75	O	-2.962000000000E-01	2.962000000000E-01	-4.055500000000E-01
	Si76	Si	2.770000000000E-01	-2.770000000000E-01	3.503500000000E-01
	O77	O	1.446000000000E-01	3.554000000000E-01	2.883500000000E-01
	Si78	Si	-3.946000000000E-01	3.946000000000E-01	3.641000000000E-01
	O79	O	2.962000000000E-01	-2.962000000000E-01	4.055500000000E-01
	Si80	Si	3.946000000000E-01	-3.946000000000E-01	-3.641000000000E-01
	O81	O	-1.824000000000E-01	-3.178000000000E-01	3.524500000000E-01
	Si82	Si	-3.572000000000E-01	3.572000000000E-01	-2.861000000000E-01
	O83	O	-3.649000000000E-01	3.649000000000E-01	4.178500000000E-01
	Si84	Si	3.572000000000E-01	-3.572000000000E-01	2.861000000000E-01
	O85	O	-3.554000000000E-01	-1.446000000000E-01	2.883500000000E-01
	Si86	Si	-2.947000000000E-01	2.947000000000E-01	3.159500000000E-01
	O87	O	3.649000000000E-01	-3.649000000000E-01	-4.178500000000E-01
	Si88	Si	2.947000000000E-01	-2.947000000000E-01	-3.159500000000E-01
	O89	O	3.178000000000E-01	1.824000000000E-01	3.524500000000E-01
	Si90	Si	-3.047000000000E-01	3.047000000000E-01	4.516000000000E-01
	O91	O	-3.498000000000E-01	3.498000000000E-01	3.340000000000E-01
	Si92	Si	3.047000000000E-01	-3.047000000000E-01	-4.516000000000E-01
	O93	O	-1.446000000000E-01	-3.554000000000E-01	-2.883500000000E-01
	Si94	Si	-2.652000000000E-01	2.652000000000E-01	-4.465500000000E-01
	O95	O	3.498000000000E-01	-3.498000000000E-01	-3.340000000000E-01
	Si96	Si	2.652000000000E-01	-2.652000000000E-01	4.465500000000E-01


data_ SFW
_chemical_name_common		'SFW'
_cell_length_a		16.70525218
_cell_length_b		16.70525218
_cell_length_c		16.70525218
_cell_angle_alpha		48.343131
_cell_angle_beta		48.343131
_cell_angle_gamma		48.343131
_space group_name_H-M_alt		'P 1'
_space_group_IT_number		1

loop_
	_atom_site_label
	_atom_site_type_symbol
	_atom_site_fract_x
	_atom_site_fract_y
	_atom_site_fract_z
	Si1	Si	2.570400000000E-01	4.829400000000E-01	3.207000000000E-02
	Si2	Si	3.207000000000E-02	2.570400000000E-01	4.829400000000E-01
	Si3	Si	4.829400000000E-01	3.207000000000E-02	2.570400000000E-01
	Si4	Si	-4.829400000000E-01	-2.570400000000E-01	-3.207000000000E-02
	Si5	Si	-2.570400000000E-01	-3.207000000000E-02	-4.829400000000E-01
	Si6	Si	-3.207000000000E-02	-4.829400000000E-01	-2.570400000000E-01
	Si7	Si	-2.570400000000E-01	-4.829400000000E-01	-3.207000000000E-02
	Si8	Si	-3.207000000000E-02	-2.570400000000E-01	-4.829400000000E-01
	Si9	Si	-4.829400000000E-01	-3.207000000000E-02	-2.570400000000E-01
	Si10	Si	4.829400000000E-01	2.570400000000E-01	3.207000000000E-02
	Si11	Si	2.570400000000E-01	3.207000000000E-02	4.829400000000E-01
	Si12	Si	3.207000000000E-02	4.829400000000E-01	2.570400000000E-01
	Si13	Si	1.865400000000E-01	4.130700000000E-01	-3.915000000000E-02
	Si14	Si	-3.915000000000E-02	1.865400000000E-01	4.130700000000E-01
	Si15	Si	4.130700000000E-01	-3.915000000000E-02	1.865400000000E-01
	Si16	Si	-4.130700000000E-01	-1.865400000000E-01	3.915000000000E-02
	Si17	Si	-1.865400000000E-01	3.915000000000E-02	-4.130700000000E-01
	Si18	Si	3.915000000000E-02	-4.130700000000E-01	-1.865400000000E-01
	Si19	Si	-1.865400000000E-01	-4.130700000000E-01	3.915000000000E-02
	Si20	Si	3.915000000000E-02	-1.865400000000E-01	-4.130700000000E-01
	Si21	Si	-4.130700000000E-01	3.915000000000E-02	-1.865400000000E-01
	Si22	Si	4.130700000000E-01	1.865400000000E-01	-3.915000000000E-02
	Si23	Si	1.865400000000E-01	-3.915000000000E-02	4.130700000000E-01
	Si24	Si	-3.915000000000E-02	4.130700000000E-01	1.865400000000E-01
	Si25	Si	3.471000000000E-02	2.611200000000E-01	-1.906500000000E-01
	Si26	Si	-1.906500000000E-01	3.471000000000E-02	2.611200000000E-01
	Si27	Si	2.611200000000E-01	-1.906500000000E-01	3.471000000000E-02
	Si28	Si	-2.611200000000E-01	-3.471000000000E-02	1.906500000000E-01
	Si29	Si	-3.471000000000E-02	1.906500000000E-01	-2.611200000000E-01
	Si30	Si	1.906500000000E-01	-2.611200000000E-01	-3.471000000000E-02
	Si31	Si	-3.471000000000E-02	-2.611200000000E-01	1.906500000000E-01
	Si32	Si	1.906500000000E-01	-3.471000000000E-02	-2.611200000000E-01
	Si33	Si	-2.611200000000E-01	1.906500000000E-01	-3.471000000000E-02
	Si34	Si	2.611200000000E-01	3.471000000000E-02	-1.906500000000E-01
	Si35	Si	3.471000000000E-02	-1.906500000000E-01	2.611200000000E-01
	Si36	Si	-1.906500000000E-01	2.611200000000E-01	3.471000000000E-02
	O37	O	2.221400000000E-01	4.775300000000E-01	-3.334000000000E-02
	O38	O	-3.334000000000E-02	2.221400000000E-01	4.775300000000E-01
	O39	O	4.775300000000E-01	-3.334000000000E-02	2.221400000000E-01
	O40	O	-4.775300000000E-01	-2.221400000000E-01	3.334000000000E-02
	O41	O	-2.221400000000E-01	3.334000000000E-02	-4.775300000000E-01
	O42	O	3.334000000000E-02	-4.775300000000E-01	-2.221400000000E-01
	O43	O	-2.221400000000E-01	-4.775300000000E-01	3.334000000000E-02
	O44	O	3.334000000000E-02	-2.221400000000E-01	-4.775300000000E-01
	O45	O	-4.775300000000E-01	3.334000000000E-02	-2.221400000000E-01
	O46	O	4.775300000000E-01	2.221400000000E-01	-3.334000000000E-02
	O47	O	2.221400000000E-01	-3.334000000000E-02	4.775300000000E-01
	O48	O	-3.334000000000E-02	4.775300000000E-01	2.221400000000E-01
	O49	O	3.876100000000E-01	2.431000000000E-02	3.876100000000E-01
	O50	O	3.876100000000E-01	3.876100000000E-01	2.431000000000E-02
	O51	O	2.431000000000E-02	3.876100000000E-01	3.876100000000E-01
	O52	O	-2.431000000000E-02	-3.876100000000E-01	-3.876100000000E-01
	O53	O	-3.876100000000E-01	-3.876100000000E-01	-2.431000000000E-02
	O54	O	-3.876100000000E-01	-2.431000000000E-02	-3.876100000000E-01
	O55	O	1.670700000000E-01	4.558500000000E-01	1.670700000000E-01
	O56	O	1.670700000000E-01	1.670700000000E-01	4.558500000000E-01
	O57	O	4.558500000000E-01	1.670700000000E-01	1.670700000000E-01
	O58	O	-4.558500000000E-01	-1.670700000000E-01	-1.670700000000E-01
	O59	O	-1.670700000000E-01	-1.670700000000E-01	-4.558500000000E-01
	O60	O	-1.670700000000E-01	-4.558500000000E-01	-1.670700000000E-01
	O61	O	2.517700000000E-01	-3.887100000000E-01	-3.041000000000E-02
	O62	O	-3.041000000000E-02	2.517700000000E-01	-3.887100000000E-01
	O63	O	-3.887100000000E-01	-3.041000000000E-02	2.517700000000E-01
	O64	O	3.887100000000E-01	-2.517700000000E-01	3.041000000000E-02
	O65	O	-2.517700000000E-01	3.041000000000E-02	3.887100000000E-01
	O66	O	3.041000000000E-02	3.887100000000E-01	-2.517700000000E-01
	O67	O	-2.517700000000E-01	3.887100000000E-01	3.041000000000E-02
	O68	O	3.041000000000E-02	-2.517700000000E-01	3.887100000000E-01
	O69	O	3.887100000000E-01	3.041000000000E-02	-2.517700000000E-01
	O70	O	-3.887100000000E-01	2.517700000000E-01	-3.041000000000E-02
	O71	O	2.517700000000E-01	-3.041000000000E-02	-3.887100000000E-01
	O72	O	-3.041000000000E-02	-3.887100000000E-01	2.517700000000E-01
	O73	O	8.233000000000E-02	3.766000000000E-01	8.233000000000E-02
	O74	O	8.233000000000E-02	8.233000000000E-02	3.766000000000E-01
	O75	O	3.766000000000E-01	8.233000000000E-02	8.233000000000E-02
	O76	O	-3.766000000000E-01	-8.233000000000E-02	-8.233000000000E-02
	O77	O	-8.233000000000E-02	-8.233000000000E-02	-3.766000000000E-01
	O78	O	-8.233000000000E-02	-3.766000000000E-01	-8.233000000000E-02
	O79	O	-1.446100000000E-01	1.446100000000E-01	-5.000000000000E-01
	O80	O	-5.000000000000E-01	-1.446100000000E-01	1.446100000000E-01
	O81	O	1.446100000000E-01	5.000000000000E-01	-1.446100000000E-01
	O82	O	1.446100000000E-01	-1.446100000000E-01	-5.000000000000E-01
	O83	O	-5.000000000000E-01	1.446100000000E-01	-1.446100000000E-01
	O84	O	-1.446100000000E-01	-5.000000000000E-01	1.446100000000E-01
	O85	O	2.978200000000E-01	-6.242000000000E-02	2.978200000000E-01
	O86	O	2.978200000000E-01	2.978200000000E-01	-6.242000000000E-02
	O87	O	-6.242000000000E-02	2.978200000000E-01	2.978200000000E-01
	O88	O	6.242000000000E-02	-2.978200000000E-01	-2.978200000000E-01
	O89	O	-2.978200000000E-01	-2.978200000000E-01	6.242000000000E-02
	O90	O	-2.978200000000E-01	6.242000000000E-02	-2.978200000000E-01
	O91	O	2.579600000000E-01	-2.579600000000E-01	1.499014997946E-17
	O92	O	-3.047832402998E-17	2.579600000000E-01	-2.579600000000E-01
	O93	O	-2.579600000000E-01	-7.032831398395E-17	2.579600000000E-01
	O94	O	-2.579600000000E-01	2.579600000000E-01	-6.866718629060E-17
	O95	O	3.047832402998E-17	-2.579600000000E-01	2.579600000000E-01
	O96	O	2.579600000000E-01	7.032831398395E-17	-2.579600000000E-01
	O97	O	1.649300000000E-01	-1.979200000000E-01	1.649300000000E-01
	O98	O	1.649300000000E-01	1.649300000000E-01	-1.979200000000E-01
	O99	O	-1.979200000000E-01	1.649300000000E-01	1.649300000000E-01
	O100	O	1.979200000000E-01	-1.649300000000E-01	-1.649300000000E-01
	O101	O	-1.649300000000E-01	-1.649300000000E-01	1.979200000000E-01
	O102	O	-1.649300000000E-01	1.979200000000E-01	-1.649300000000E-01
	O103	O	-5.583000000000E-02	2.335800000000E-01	-5.583000000000E-02
	O104	O	-5.583000000000E-02	-5.583000000000E-02	2.335800000000E-01
	O105	O	2.335800000000E-01	-5.583000000000E-02	-5.583000000000E-02
	O106	O	-2.335800000000E-01	5.583000000000E-02	5.583000000000E-02
	O107	O	5.583000000000E-02	5.583000000000E-02	-2.335800000000E-01
	O108	O	5.583000000000E-02	-2.335800000000E-01	5.583000000000E-02


data_ SGT
_chemical_name_common		'SGT'
_cell_length_a		18.66990210
_cell_length_b		18.66990210
_cell_length_c		18.66990210
_cell_angle_alpha		147.882640
_cell_angle_beta		147.882640
_cell_angle_gamma		46.058643
_space group_name_H-M_alt		'P 1'
_space_group_IT_number		1

loop_
	_atom_site_label
	_atom_site_type_symbol
	_atom_site_fract_x
	_atom_site_fract_y
	_atom_site_fract_z
	O1	O	-4.764000000000E-01	1.909000000000E-01	-3.327000000000E-01
	O2	O	-4.764000000000E-01	-1.437000000000E-01	3.327000000000E-01
	O3	O	-2.736000000000E-01	-1.063000000000E-01	1.673000000000E-01
	O4	O	-2.736000000000E-01	-4.409000000000E-01	-1.673000000000E-01
	O5	O	-1.909000000000E-01	4.764000000000E-01	3.327000000000E-01
	O6	O	1.437000000000E-01	4.764000000000E-01	-3.327000000000E-01
	O7	O	1.063000000000E-01	2.736000000000E-01	-1.673000000000E-01
	O8	O	4.409000000000E-01	2.736000000000E-01	1.673000000000E-01
	O9	O	3.726000000000E-01	3.726000000000E-01	-2.548000000000E-01
	O10	O	-3.726000000000E-01	-3.726000000000E-01	2.548000000000E-01
	O11	O	-1.226000000000E-01	1.226000000000E-01	5.000000000000E-01
	O12	O	-3.774000000000E-01	3.774000000000E-01	5.000000000000E-01
	O13	O	-1.226000000000E-01	3.774000000000E-01	-2.452000000000E-01
	O14	O	-3.774000000000E-01	1.226000000000E-01	2.452000000000E-01
	O15	O	3.726000000000E-01	-3.726000000000E-01	-2.055888842488E-16
	O16	O	-3.726000000000E-01	3.726000000000E-01	-7.196687190753E-17
	O17	O	4.494000000000E-01	1.802000000000E-01	-2.692000000000E-01
	O18	O	4.494000000000E-01	-2.814000000000E-01	2.692000000000E-01
	O19	O	-1.994000000000E-01	3.140000000000E-02	2.308000000000E-01
	O20	O	-1.994000000000E-01	-4.302000000000E-01	-2.308000000000E-01
	O21	O	-1.802000000000E-01	-4.494000000000E-01	2.692000000000E-01
	O22	O	2.814000000000E-01	-4.494000000000E-01	-2.692000000000E-01
	O23	O	-3.140000000000E-02	1.994000000000E-01	-2.308000000000E-01
	O24	O	4.302000000000E-01	1.994000000000E-01	2.308000000000E-01
	O25	O	-4.185000000000E-01	8.150000000000E-02	5.000000000000E-01
	O26	O	-3.315000000000E-01	-3.315000000000E-01	-7.279505657595E-18
	O27	O	-8.150000000000E-02	4.185000000000E-01	5.000000000000E-01
	O28	O	3.315000000000E-01	3.315000000000E-01	-1.289832151757E-16
	O29	O	4.605000000000E-01	3.071000000000E-01	-4.082000000000E-01
	O30	O	-2.847000000000E-01	-1.313000000000E-01	4.082000000000E-01
	O31	O	-2.105000000000E-01	-1.187000000000E-01	3.466000000000E-01
	O32	O	-4.653000000000E-01	4.429000000000E-01	-3.466000000000E-01
	O33	O	-3.071000000000E-01	-4.605000000000E-01	4.082000000000E-01
	O34	O	1.313000000000E-01	2.847000000000E-01	-4.082000000000E-01
	O35	O	1.187000000000E-01	2.105000000000E-01	-3.466000000000E-01
	O36	O	-4.429000000000E-01	4.653000000000E-01	3.466000000000E-01
	O37	O	-2.105000000000E-01	4.429000000000E-01	-9.180000000000E-02
	O38	O	-4.653000000000E-01	-1.187000000000E-01	9.180000000000E-02
	O39	O	4.605000000000E-01	-1.313000000000E-01	1.534000000000E-01
	O40	O	-2.847000000000E-01	3.071000000000E-01	-1.534000000000E-01
	O41	O	-4.429000000000E-01	2.105000000000E-01	9.180000000000E-02
	O42	O	1.187000000000E-01	4.653000000000E-01	-9.180000000000E-02
	O43	O	1.313000000000E-01	-4.605000000000E-01	-1.534000000000E-01
	O44	O	-3.071000000000E-01	2.847000000000E-01	1.534000000000E-01
	O45	O	-7.300000000000E-03	5.760000000000E-02	3.189000000000E-01
	O46	O	-2.613000000000E-01	-3.262000000000E-01	-3.189000000000E-01
	O47	O	2.573000000000E-01	7.620000000000E-02	-4.351000000000E-01
	O48	O	-4.887000000000E-01	-3.076000000000E-01	4.351000000000E-01
	O49	O	-5.760000000000E-02	7.300000000000E-03	-3.189000000000E-01
	O50	O	3.262000000000E-01	2.613000000000E-01	3.189000000000E-01
	O51	O	-7.620000000000E-02	-2.573000000000E-01	4.351000000000E-01
	O52	O	3.076000000000E-01	4.887000000000E-01	-4.351000000000E-01
	O53	O	2.573000000000E-01	-3.076000000000E-01	1.811000000000E-01
	O54	O	-4.887000000000E-01	7.620000000000E-02	-1.811000000000E-01
	O55	O	-7.300000000000E-03	-3.262000000000E-01	-6.490000000000E-02
	O56	O	-2.613000000000E-01	5.760000000000E-02	6.490000000000E-02
	O57	O	3.076000000000E-01	-2.573000000000E-01	-1.811000000000E-01
	O58	O	-7.620000000000E-02	4.887000000000E-01	1.811000000000E-01
	O59	O	3.262000000000E-01	7.300000000000E-03	6.490000000000E-02
	O60	O	-5.760000000000E-02	2.613000000000E-01	-6.490000000000E-02
	O61	O	4.174000000000E-01	-8.260000000000E-02	5.000000000000E-01
	O62	O	-1.674000000000E-01	-1.674000000000E-01	-7.279505657595E-18
	O63	O	8.260000000000E-02	-4.174000000000E-01	-5.000000000000E-01
	O64	O	1.674000000000E-01	1.674000000000E-01	-8.598881011716E-17
	Si65	Si	4.932000000000E-01	2.792000000000E-01	-2.140000000000E-01
	Si66	Si	4.932000000000E-01	-2.928000000000E-01	2.140000000000E-01
	Si67	Si	-2.432000000000E-01	4.280000000000E-02	2.860000000000E-01
	Si68	Si	-2.432000000000E-01	4.708000000000E-01	-2.860000000000E-01
	Si69	Si	-2.792000000000E-01	-4.932000000000E-01	2.140000000000E-01
	Si70	Si	2.928000000000E-01	-4.932000000000E-01	-2.140000000000E-01
	Si71	Si	-4.280000000000E-02	2.432000000000E-01	-2.860000000000E-01
	Si72	Si	-4.708000000000E-01	2.432000000000E-01	2.860000000000E-01
	Si73	Si	-4.297000000000E-01	2.215000000000E-01	-3.488000000000E-01
	Si74	Si	-4.297000000000E-01	-8.090000000000E-02	3.488000000000E-01
	Si75	Si	-3.203000000000E-01	-1.691000000000E-01	1.512000000000E-01
	Si76	Si	-3.203000000000E-01	-4.715000000000E-01	-1.512000000000E-01
	Si77	Si	-2.215000000000E-01	4.297000000000E-01	3.488000000000E-01
	Si78	Si	8.090000000000E-02	4.297000000000E-01	-3.488000000000E-01
	Si79	Si	1.691000000000E-01	3.203000000000E-01	-1.512000000000E-01
	Si80	Si	4.715000000000E-01	3.203000000000E-01	1.512000000000E-01
	Si81	Si	1.250000000000E-01	1.574000000000E-01	-4.676000000000E-01
	Si82	Si	-3.750000000000E-01	-4.074000000000E-01	4.676000000000E-01
	Si83	Si	-1.574000000000E-01	-1.250000000000E-01	4.676000000000E-01
	Si84	Si	4.074000000000E-01	3.750000000000E-01	-4.676000000000E-01
	Si85	Si	1.250000000000E-01	-4.074000000000E-01	-3.240000000000E-02
	Si86	Si	-3.750000000000E-01	1.574000000000E-01	3.240000000000E-02
	Si87	Si	4.074000000000E-01	-1.250000000000E-01	3.240000000000E-02
	Si88	Si	-1.574000000000E-01	3.750000000000E-01	-3.240000000000E-02
	Si89	Si	4.088000000000E-01	6.190000000000E-02	-3.469000000000E-01
	Si90	Si	4.088000000000E-01	-2.443000000000E-01	3.469000000000E-01
	Si91	Si	-1.588000000000E-01	-5.700000000000E-03	1.531000000000E-01
	Si92	Si	-1.588000000000E-01	-3.119000000000E-01	-1.531000000000E-01
	Si93	Si	-6.190000000000E-02	-4.088000000000E-01	3.469000000000E-01
	Si94	Si	2.443000000000E-01	-4.088000000000E-01	-3.469000000000E-01
	Si95	Si	5.700000000000E-03	1.588000000000E-01	-1.531000000000E-01
	Si96	Si	3.119000000000E-01	1.588000000000E-01	1.531000000000E-01


data_ SIV
_chemical_name_common		'SIV'
_cell_length_a		8.59739429
_cell_length_b		8.59739429
_cell_length_c		28.13100000
_cell_angle_alpha		90.000000
_cell_angle_beta		90.000000
_cell_angle_gamma		70.117801
_space group_name_H-M_alt		'P 1'
_space_group_IT_number		1

loop_
	_atom_site_label
	_atom_site_type_symbol
	_atom_site_fract_x
	_atom_site_fract_y
	_atom_site_fract_z
	O1	O	2.506000000000E-01	-1.054000000000E-01	4.144000000000E-01
	O2	O	-2.506000000000E-01	1.054000000000E-01	-8.560000000000E-02
	O3	O	1.054000000000E-01	-2.506000000000E-01	-4.144000000000E-01
	O4	O	-1.054000000000E-01	2.506000000000E-01	8.560000000000E-02
	O5	O	-2.506000000000E-01	1.054000000000E-01	-4.144000000000E-01
	O6	O	2.506000000000E-01	-1.054000000000E-01	8.560000000000E-02
	O7	O	-1.054000000000E-01	2.506000000000E-01	4.144000000000E-01
	O8	O	1.054000000000E-01	-2.506000000000E-01	-8.560000000000E-02
	O9	O	4.396000000000E-01	4.320000000000E-02	3.752000000000E-01
	O10	O	-4.396000000000E-01	-4.320000000000E-02	-1.248000000000E-01
	O11	O	-4.320000000000E-02	-4.396000000000E-01	-3.752000000000E-01
	O12	O	4.320000000000E-02	4.396000000000E-01	1.248000000000E-01
	O13	O	-4.396000000000E-01	-4.320000000000E-02	-3.752000000000E-01
	O14	O	4.396000000000E-01	4.320000000000E-02	1.248000000000E-01
	O15	O	4.320000000000E-02	4.396000000000E-01	3.752000000000E-01
	O16	O	-4.320000000000E-02	-4.396000000000E-01	-1.248000000000E-01
	O17	O	1.271000000000E-01	1.271000000000E-01	3.503000000000E-01
	O18	O	-1.271000000000E-01	-1.271000000000E-01	-1.497000000000E-01
	O19	O	-1.271000000000E-01	-1.271000000000E-01	-3.503000000000E-01
	O20	O	1.271000000000E-01	1.271000000000E-01	1.497000000000E-01
	O21	O	3.379000000000E-01	-1.605000000000E-01	3.246000000000E-01
	O22	O	-3.379000000000E-01	1.605000000000E-01	-1.754000000000E-01
	O23	O	1.605000000000E-01	-3.379000000000E-01	-3.246000000000E-01
	O24	O	-1.605000000000E-01	3.379000000000E-01	1.754000000000E-01
	O25	O	-3.379000000000E-01	1.605000000000E-01	-3.246000000000E-01
	O26	O	3.379000000000E-01	-1.605000000000E-01	1.754000000000E-01
	O27	O	-1.605000000000E-01	3.379000000000E-01	3.246000000000E-01
	O28	O	1.605000000000E-01	-3.379000000000E-01	-1.754000000000E-01
	O29	O	-4.104000000000E-01	2.300000000000E-01	3.356000000000E-01
	O30	O	4.104000000000E-01	-2.300000000000E-01	-1.644000000000E-01
	O31	O	-2.300000000000E-01	4.104000000000E-01	-3.356000000000E-01
	O32	O	2.300000000000E-01	-4.104000000000E-01	1.644000000000E-01
	O33	O	4.104000000000E-01	-2.300000000000E-01	-3.356000000000E-01
	O34	O	-4.104000000000E-01	2.300000000000E-01	1.644000000000E-01
	O35	O	2.300000000000E-01	-4.104000000000E-01	3.356000000000E-01
	O36	O	-2.300000000000E-01	4.104000000000E-01	-1.644000000000E-01
	O37	O	-3.226000000000E-01	2.900000000000E-01	2.500000000000E-01
	O38	O	3.226000000000E-01	-2.900000000000E-01	-2.500000000000E-01
	O39	O	-2.900000000000E-01	3.226000000000E-01	-2.500000000000E-01
	O40	O	2.900000000000E-01	-3.226000000000E-01	2.500000000000E-01
	O41	O	-4.635000000000E-01	-4.635000000000E-01	3.084000000000E-01
	O42	O	4.635000000000E-01	4.635000000000E-01	-1.916000000000E-01
	O43	O	4.635000000000E-01	4.635000000000E-01	-3.084000000000E-01
	O44	O	-4.635000000000E-01	-4.635000000000E-01	1.916000000000E-01
	O45	O	-5.340000000000E-02	-5.340000000000E-02	4.441000000000E-01
	O46	O	5.340000000000E-02	5.340000000000E-02	-5.590000000000E-02
	O47	O	5.340000000000E-02	5.340000000000E-02	-4.441000000000E-01
	O48	O	-5.340000000000E-02	-5.340000000000E-02	5.590000000000E-02
	O49	O	-3.557000000000E-01	1.439000000000E-01	4.254000000000E-01
	O50	O	3.557000000000E-01	-1.439000000000E-01	-7.460000000000E-02
	O51	O	-1.439000000000E-01	3.557000000000E-01	-4.254000000000E-01
	O52	O	1.439000000000E-01	-3.557000000000E-01	7.460000000000E-02
	O53	O	3.557000000000E-01	-1.439000000000E-01	-4.254000000000E-01
	O54	O	-3.557000000000E-01	1.439000000000E-01	7.460000000000E-02
	O55	O	1.439000000000E-01	-3.557000000000E-01	4.254000000000E-01
	O56	O	-1.439000000000E-01	3.557000000000E-01	-7.460000000000E-02
	O57	O	-1.997000000000E-01	1.997000000000E-01	-5.000000000000E-01
	O58	O	1.997000000000E-01	-1.997000000000E-01	-7.078061510483E-17
	O59	O	1.997000000000E-01	-1.997000000000E-01	-5.000000000000E-01
	O60	O	-1.997000000000E-01	1.997000000000E-01	0.000000000000E+00
	O61	O	3.567000000000E-01	3.567000000000E-01	3.994000000000E-01
	O62	O	-3.567000000000E-01	-3.567000000000E-01	-1.006000000000E-01
	O63	O	-3.567000000000E-01	-3.567000000000E-01	-3.994000000000E-01
	O64	O	3.567000000000E-01	3.567000000000E-01	1.006000000000E-01
	Si65	Si	2.887000000000E-01	-2.410000000000E-02	3.662000000000E-01
	Si66	Si	-2.887000000000E-01	2.410000000000E-02	-1.338000000000E-01
	Si67	Si	2.410000000000E-02	-2.887000000000E-01	-3.662000000000E-01
	Si68	Si	-2.410000000000E-02	2.887000000000E-01	1.338000000000E-01
	Si69	Si	-2.887000000000E-01	2.410000000000E-02	-3.662000000000E-01
	Si70	Si	2.887000000000E-01	-2.410000000000E-02	1.338000000000E-01
	Si71	Si	-2.410000000000E-02	2.887000000000E-01	3.662000000000E-01
	Si72	Si	2.410000000000E-02	-2.887000000000E-01	-1.338000000000E-01
	Si73	Si	-3.393000000000E-01	3.485000000000E-01	3.047000000000E-01
	Si74	Si	3.393000000000E-01	-3.485000000000E-01	-1.953000000000E-01
	Si75	Si	-3.485000000000E-01	3.393000000000E-01	-3.047000000000E-01
	Si76	Si	3.485000000000E-01	-3.393000000000E-01	1.953000000000E-01
	Si77	Si	3.393000000000E-01	-3.485000000000E-01	-3.047000000000E-01
	Si78	Si	-3.393000000000E-01	3.485000000000E-01	1.953000000000E-01
	Si79	Si	3.485000000000E-01	-3.393000000000E-01	3.047000000000E-01
	Si80	Si	-3.485000000000E-01	3.393000000000E-01	-1.953000000000E-01
	Si81	Si	-1.781000000000E-01	1.349000000000E-01	4.459000000000E-01
	Si82	Si	1.781000000000E-01	-1.349000000000E-01	-5.410000000000E-02
	Si83	Si	-1.349000000000E-01	1.781000000000E-01	-4.459000000000E-01
	Si84	Si	1.349000000000E-01	-1.781000000000E-01	5.410000000000E-02
	Si85	Si	1.781000000000E-01	-1.349000000000E-01	-4.459000000000E-01
	Si86	Si	-1.781000000000E-01	1.349000000000E-01	5.410000000000E-02
	Si87	Si	1.349000000000E-01	-1.781000000000E-01	4.459000000000E-01
	Si88	Si	-1.349000000000E-01	1.781000000000E-01	-5.410000000000E-02
	Si89	Si	1.940000000000E-01	-4.928000000000E-01	3.839000000000E-01
	Si90	Si	-1.940000000000E-01	4.928000000000E-01	-1.161000000000E-01
	Si91	Si	4.928000000000E-01	-1.940000000000E-01	-3.839000000000E-01
	Si92	Si	-4.928000000000E-01	1.940000000000E-01	1.161000000000E-01
	Si93	Si	-1.940000000000E-01	4.928000000000E-01	-3.839000000000E-01
	Si94	Si	1.940000000000E-01	-4.928000000000E-01	1.161000000000E-01
	Si95	Si	-4.928000000000E-01	1.940000000000E-01	3.839000000000E-01
	Si96	Si	4.928000000000E-01	-1.940000000000E-01	-1.161000000000E-01


data_ SOR
_chemical_name_common		'SOR'
_cell_length_a		13.70545288
_cell_length_b		13.70545288
_cell_length_c		7.58770000
_cell_angle_alpha		90.000000
_cell_angle_beta		90.000000
_cell_angle_gamma		99.544050
_space group_name_H-M_alt		'P 1'
_space_group_IT_number		1

loop_
	_atom_site_label
	_atom_site_type_symbol
	_atom_site_fract_x
	_atom_site_fract_y
	_atom_site_fract_z
	Si1	Si	3.553800000000E-01	-1.825000000000E-01	2.993400000000E-01
	Si2	Si	-3.553800000000E-01	1.825000000000E-01	2.993400000000E-01
	Si3	Si	1.825000000000E-01	-3.553800000000E-01	-2.993400000000E-01
	Si4	Si	-1.825000000000E-01	3.553800000000E-01	-2.993400000000E-01
	Si5	Si	-3.553800000000E-01	1.825000000000E-01	-2.993400000000E-01
	Si6	Si	3.553800000000E-01	-1.825000000000E-01	-2.993400000000E-01
	Si7	Si	-1.825000000000E-01	3.553800000000E-01	2.993400000000E-01
	Si8	Si	1.825000000000E-01	-3.553800000000E-01	2.993400000000E-01
	Si9	Si	2.070200000000E-01	-3.442000000000E-02	2.993300000000E-01
	Si10	Si	-2.070200000000E-01	3.442000000000E-02	2.993300000000E-01
	Si11	Si	3.442000000000E-02	-2.070200000000E-01	-2.993300000000E-01
	Si12	Si	-3.442000000000E-02	2.070200000000E-01	-2.993300000000E-01
	Si13	Si	-2.070200000000E-01	3.442000000000E-02	-2.993300000000E-01
	Si14	Si	2.070200000000E-01	-3.442000000000E-02	-2.993300000000E-01
	Si15	Si	-3.442000000000E-02	2.070200000000E-01	2.993300000000E-01
	Si16	Si	3.442000000000E-02	-2.070200000000E-01	2.993300000000E-01
	Si17	Si	4.952300000000E-01	1.163300000000E-01	0.000000000000E+00
	Si18	Si	-4.952300000000E-01	-1.163300000000E-01	0.000000000000E+00
	Si19	Si	-1.163300000000E-01	-4.952300000000E-01	0.000000000000E+00
	Si20	Si	1.163300000000E-01	4.952300000000E-01	0.000000000000E+00
	Si21	Si	2.636000000000E-01	1.207600000000E-01	0.000000000000E+00
	Si22	Si	-2.636000000000E-01	-1.207600000000E-01	0.000000000000E+00
	Si23	Si	-1.207600000000E-01	-2.636000000000E-01	0.000000000000E+00
	Si24	Si	1.207600000000E-01	2.636000000000E-01	0.000000000000E+00
	O25	O	3.049500000000E-01	-8.467000000000E-02	2.876400000000E-01
	O26	O	-3.049500000000E-01	8.467000000000E-02	2.876400000000E-01
	O27	O	8.467000000000E-02	-3.049500000000E-01	-2.876400000000E-01
	O28	O	-8.467000000000E-02	3.049500000000E-01	-2.876400000000E-01
	O29	O	-3.049500000000E-01	8.467000000000E-02	-2.876400000000E-01
	O30	O	3.049500000000E-01	-8.467000000000E-02	-2.876400000000E-01
	O31	O	-8.467000000000E-02	3.049500000000E-01	2.876400000000E-01
	O32	O	8.467000000000E-02	-3.049500000000E-01	2.876400000000E-01
	O33	O	4.509900000000E-01	-1.680700000000E-01	1.729100000000E-01
	O34	O	-4.509900000000E-01	1.680700000000E-01	1.729100000000E-01
	O35	O	1.680700000000E-01	-4.509900000000E-01	-1.729100000000E-01
	O36	O	-1.680700000000E-01	4.509900000000E-01	-1.729100000000E-01
	O37	O	-4.509900000000E-01	1.680700000000E-01	-1.729100000000E-01
	O38	O	4.509900000000E-01	-1.680700000000E-01	-1.729100000000E-01
	O39	O	-1.680700000000E-01	4.509900000000E-01	1.729100000000E-01
	O40	O	1.680700000000E-01	-4.509900000000E-01	1.729100000000E-01
	O41	O	2.773300000000E-01	-2.773300000000E-01	2.374700000000E-01
	O42	O	-2.773300000000E-01	2.773300000000E-01	2.374700000000E-01
	O43	O	2.773300000000E-01	-2.773300000000E-01	-2.374700000000E-01
	O44	O	-2.773300000000E-01	2.773300000000E-01	-2.374700000000E-01
	O45	O	3.881200000000E-01	-1.977600000000E-01	5.000000000000E-01
	O46	O	-3.881200000000E-01	1.977600000000E-01	5.000000000000E-01
	O47	O	1.977600000000E-01	-3.881200000000E-01	5.000000000000E-01
	O48	O	-1.977600000000E-01	3.881200000000E-01	5.000000000000E-01
	O49	O	1.125900000000E-01	-1.125900000000E-01	2.362800000000E-01
	O50	O	-1.125900000000E-01	1.125900000000E-01	2.362800000000E-01
	O51	O	1.125900000000E-01	-1.125900000000E-01	-2.362800000000E-01
	O52	O	-1.125900000000E-01	1.125900000000E-01	-2.362800000000E-01
	O53	O	1.911400000000E-01	-2.140000000000E-03	5.000000000000E-01
	O54	O	-1.911400000000E-01	2.140000000000E-03	5.000000000000E-01
	O55	O	2.140000000000E-03	-1.911400000000E-01	5.000000000000E-01
	O56	O	-2.140000000000E-03	1.911400000000E-01	5.000000000000E-01
	O57	O	2.201000000000E-01	6.134000000000E-02	1.734600000000E-01
	O58	O	-2.201000000000E-01	-6.134000000000E-02	1.734600000000E-01
	O59	O	-6.134000000000E-02	-2.201000000000E-01	-1.734600000000E-01
	O60	O	6.134000000000E-02	2.201000000000E-01	-1.734600000000E-01
	O61	O	-2.201000000000E-01	-6.134000000000E-02	-1.734600000000E-01
	O62	O	2.201000000000E-01	6.134000000000E-02	-1.734600000000E-01
	O63	O	6.134000000000E-02	2.201000000000E-01	1.734600000000E-01
	O64	O	-6.134000000000E-02	-2.201000000000E-01	1.734600000000E-01
	O65	O	5.000000000000E-01	-1.629345081763E-17	0.000000000000E+00
	O66	O	1.272278634155E-17	5.000000000000E-01	0.000000000000E+00
	O67	O	3.824200000000E-01	1.351200000000E-01	0.000000000000E+00
	O68	O	-3.824200000000E-01	-1.351200000000E-01	0.000000000000E+00
	O69	O	-1.351200000000E-01	-3.824200000000E-01	0.000000000000E+00
	O70	O	1.351200000000E-01	3.824200000000E-01	0.000000000000E+00
	O71	O	2.263000000000E-01	2.263000000000E-01	0.000000000000E+00
	O72	O	-2.263000000000E-01	-2.263000000000E-01	0.000000000000E+00


data_ SOS
_chemical_name_common		'SOS'
_cell_length_a		20.43700000
_cell_length_b		7.11600000
_cell_length_c		9.72600000
_cell_angle_alpha		90.000000
_cell_angle_beta		90.000000
_cell_angle_gamma		90.000000
_space group_name_H-M_alt		'P 1'
_space_group_IT_number		1

loop_
	_atom_site_label
	_atom_site_type_symbol
	_atom_site_fract_x
	_atom_site_fract_y
	_atom_site_fract_z
	O1	O	2.046000000000E-01	5.000000000000E-01	0.000000000000E+00
	O2	O	2.954000000000E-01	5.000000000000E-01	5.000000000000E-01
	O3	O	-2.046000000000E-01	5.000000000000E-01	0.000000000000E+00
	O4	O	-2.954000000000E-01	5.000000000000E-01	5.000000000000E-01
	O5	O	1.245000000000E-01	-3.963000000000E-01	-1.997000000000E-01
	O6	O	3.755000000000E-01	3.963000000000E-01	3.003000000000E-01
	O7	O	1.245000000000E-01	3.963000000000E-01	1.997000000000E-01
	O8	O	3.755000000000E-01	-3.963000000000E-01	-3.003000000000E-01
	O9	O	-1.245000000000E-01	3.963000000000E-01	1.997000000000E-01
	O10	O	-3.755000000000E-01	-3.963000000000E-01	-3.003000000000E-01
	O11	O	-1.245000000000E-01	-3.963000000000E-01	-1.997000000000E-01
	O12	O	-3.755000000000E-01	3.963000000000E-01	3.003000000000E-01
	O13	O	1.726000000000E-01	0.000000000000E+00	0.000000000000E+00
	O14	O	3.274000000000E-01	0.000000000000E+00	5.000000000000E-01
	O15	O	-1.726000000000E-01	0.000000000000E+00	0.000000000000E+00
	O16	O	-3.274000000000E-01	0.000000000000E+00	5.000000000000E-01
	O17	O	1.751000000000E-01	-2.642000000000E-01	1.966000000000E-01
	O18	O	3.249000000000E-01	2.642000000000E-01	-3.034000000000E-01
	O19	O	1.751000000000E-01	2.642000000000E-01	-1.966000000000E-01
	O20	O	3.249000000000E-01	-2.642000000000E-01	3.034000000000E-01
	O21	O	-1.751000000000E-01	2.642000000000E-01	-1.966000000000E-01
	O22	O	-3.249000000000E-01	-2.642000000000E-01	3.034000000000E-01
	O23	O	-1.751000000000E-01	-2.642000000000E-01	1.966000000000E-01
	O24	O	-3.249000000000E-01	2.642000000000E-01	-3.034000000000E-01
	O25	O	2.500000000000E-01	-4.450000000000E-01	-2.500000000000E-01
	O26	O	2.500000000000E-01	4.450000000000E-01	2.500000000000E-01
	O27	O	-2.500000000000E-01	4.450000000000E-01	2.500000000000E-01
	O28	O	-2.500000000000E-01	-4.450000000000E-01	-2.500000000000E-01
	O29	O	9.390000000000E-02	-3.610000000000E-02	-2.040000000000E-01
	O30	O	4.061000000000E-01	3.610000000000E-02	2.960000000000E-01
	O31	O	9.390000000000E-02	3.610000000000E-02	2.040000000000E-01
	O32	O	4.061000000000E-01	-3.610000000000E-02	-2.960000000000E-01
	O33	O	-9.390000000000E-02	3.610000000000E-02	2.040000000000E-01
	O34	O	-4.061000000000E-01	-3.610000000000E-02	-2.960000000000E-01
	O35	O	-9.390000000000E-02	-3.610000000000E-02	-2.040000000000E-01
	O36	O	-4.061000000000E-01	3.610000000000E-02	2.960000000000E-01
	O37	O	7.790000000000E-02	2.328000000000E-01	-2.040000000000E-02
	O38	O	4.221000000000E-01	-2.328000000000E-01	4.796000000000E-01
	O39	O	7.790000000000E-02	-2.328000000000E-01	2.040000000000E-02
	O40	O	4.221000000000E-01	2.328000000000E-01	-4.796000000000E-01
	O41	O	-7.790000000000E-02	-2.328000000000E-01	2.040000000000E-02
	O42	O	-4.221000000000E-01	2.328000000000E-01	-4.796000000000E-01
	O43	O	-7.790000000000E-02	2.328000000000E-01	-2.040000000000E-02
	O44	O	-4.221000000000E-01	-2.328000000000E-01	4.796000000000E-01
	O45	O	0.000000000000E+00	2.901000000000E-01	1.907000000000E-01
	O46	O	5.000000000000E-01	-2.901000000000E-01	-3.093000000000E-01
	O47	O	0.000000000000E+00	-2.901000000000E-01	-1.907000000000E-01
	O48	O	5.000000000000E-01	2.901000000000E-01	3.093000000000E-01
	Si49	Si	1.884000000000E-01	-4.823000000000E-01	1.614000000000E-01
	Si50	Si	3.116000000000E-01	4.823000000000E-01	-3.386000000000E-01
	Si51	Si	1.884000000000E-01	4.823000000000E-01	-1.614000000000E-01
	Si52	Si	3.116000000000E-01	-4.823000000000E-01	3.386000000000E-01
	Si53	Si	-1.884000000000E-01	4.823000000000E-01	-1.614000000000E-01
	Si54	Si	-3.116000000000E-01	-4.823000000000E-01	3.386000000000E-01
	Si55	Si	-1.884000000000E-01	-4.823000000000E-01	1.614000000000E-01
	Si56	Si	-3.116000000000E-01	4.823000000000E-01	-3.386000000000E-01
	Si57	Si	7.370000000000E-02	2.402000000000E-01	1.452000000000E-01
	Si58	Si	4.263000000000E-01	-2.402000000000E-01	-3.548000000000E-01
	Si59	Si	7.370000000000E-02	-2.402000000000E-01	-1.452000000000E-01
	Si60	Si	4.263000000000E-01	2.402000000000E-01	3.548000000000E-01
	Si61	Si	-7.370000000000E-02	-2.402000000000E-01	-1.452000000000E-01
	Si62	Si	-4.263000000000E-01	2.402000000000E-01	3.548000000000E-01
	Si63	Si	-7.370000000000E-02	2.402000000000E-01	1.452000000000E-01
	Si64	Si	-4.263000000000E-01	-2.402000000000E-01	-3.548000000000E-01
	Si65	Si	1.307000000000E-01	-1.189000000000E-01	1.112000000000E-01
	Si66	Si	3.693000000000E-01	1.189000000000E-01	-3.888000000000E-01
	Si67	Si	1.307000000000E-01	1.189000000000E-01	-1.112000000000E-01
	Si68	Si	3.693000000000E-01	-1.189000000000E-01	3.888000000000E-01
	Si69	Si	-1.307000000000E-01	1.189000000000E-01	-1.112000000000E-01
	Si70	Si	-3.693000000000E-01	-1.189000000000E-01	3.888000000000E-01
	Si71	Si	-1.307000000000E-01	-1.189000000000E-01	1.112000000000E-01
	Si72	Si	-3.693000000000E-01	1.189000000000E-01	-3.888000000000E-01


data_ SSY
_chemical_name_common		'SSY'
_cell_length_a		5.25800000
_cell_length_b		22.57900000
_cell_length_c		13.97700000
_cell_angle_alpha		90.000000
_cell_angle_beta		90.000000
_cell_angle_gamma		90.000000
_space group_name_H-M_alt		'P 1'
_space_group_IT_number		1

loop_
	_atom_site_label
	_atom_site_type_symbol
	_atom_site_fract_x
	_atom_site_fract_y
	_atom_site_fract_z
	O1	O	-4.222986019875E-17	5.810000000000E-02	2.104000000000E-01
	O2	O	-1.266895805963E-16	-5.810000000000E-02	2.104000000000E-01
	O3	O	-5.000000000000E-01	4.419000000000E-01	-2.104000000000E-01
	O4	O	-5.000000000000E-01	-4.419000000000E-01	-2.104000000000E-01
	O5	O	2.500000000000E-01	-3.933648167324E-17	7.740000000000E-02
	O6	O	-2.500000000000E-01	0.000000000000E+00	7.740000000000E-02
	O7	O	-2.500000000000E-01	-5.000000000000E-01	-7.740000000000E-02
	O8	O	2.500000000000E-01	-5.000000000000E-01	-7.740000000000E-02
	O9	O	-5.000000000000E-01	-5.830000000000E-02	-5.520000000000E-02
	O10	O	-5.000000000000E-01	5.830000000000E-02	-5.520000000000E-02
	O11	O	-1.266895805963E-16	-4.417000000000E-01	5.520000000000E-02
	O12	O	8.445972039750E-17	4.417000000000E-01	5.520000000000E-02
	O13	O	-4.222986019875E-17	-1.415000000000E-01	3.407000000000E-01
	O14	O	-1.266895805963E-16	1.415000000000E-01	3.407000000000E-01
	O15	O	-5.000000000000E-01	-3.585000000000E-01	-3.407000000000E-01
	O16	O	-5.000000000000E-01	3.585000000000E-01	-3.407000000000E-01
	O17	O	2.500000000000E-01	-1.575000000000E-01	1.803000000000E-01
	O18	O	-2.500000000000E-01	1.575000000000E-01	1.803000000000E-01
	O19	O	-2.500000000000E-01	-3.425000000000E-01	-1.803000000000E-01
	O20	O	2.500000000000E-01	3.425000000000E-01	-1.803000000000E-01
	O21	O	2.500000000000E-01	-3.425000000000E-01	-1.803000000000E-01
	O22	O	-2.500000000000E-01	3.425000000000E-01	-1.803000000000E-01
	O23	O	-2.500000000000E-01	-1.575000000000E-01	1.803000000000E-01
	O24	O	2.500000000000E-01	1.575000000000E-01	1.803000000000E-01
	O25	O	-4.222986019875E-17	-1.836000000000E-01	-4.824000000000E-01
	O26	O	-1.266895805963E-16	1.836000000000E-01	-4.824000000000E-01
	O27	O	-5.000000000000E-01	-3.164000000000E-01	4.824000000000E-01
	O28	O	-5.000000000000E-01	3.164000000000E-01	4.824000000000E-01
	O29	O	2.499000000000E-01	-2.383000000000E-01	3.801000000000E-01
	O30	O	-2.499000000000E-01	2.383000000000E-01	3.801000000000E-01
	O31	O	-2.501000000000E-01	-2.617000000000E-01	-3.801000000000E-01
	O32	O	2.501000000000E-01	2.617000000000E-01	-3.801000000000E-01
	O33	O	2.501000000000E-01	-2.617000000000E-01	-3.801000000000E-01
	O34	O	-2.501000000000E-01	2.617000000000E-01	-3.801000000000E-01
	O35	O	-2.499000000000E-01	-2.383000000000E-01	3.801000000000E-01
	O36	O	2.499000000000E-01	2.383000000000E-01	3.801000000000E-01
	O37	O	-4.222986019875E-17	-3.339000000000E-01	-1.850000000000E-02
	O38	O	-1.266895805963E-16	3.339000000000E-01	-1.850000000000E-02
	O39	O	-5.000000000000E-01	-1.661000000000E-01	1.850000000000E-02
	O40	O	-5.000000000000E-01	1.661000000000E-01	1.850000000000E-02
	O41	O	-2.500000000000E-01	-3.562000000000E-01	1.401000000000E-01
	O42	O	2.500000000000E-01	3.562000000000E-01	1.401000000000E-01
	O43	O	2.500000000000E-01	-1.438000000000E-01	-1.401000000000E-01
	O44	O	-2.500000000000E-01	1.438000000000E-01	-1.401000000000E-01
	O45	O	-2.500000000000E-01	-1.438000000000E-01	-1.401000000000E-01
	O46	O	2.500000000000E-01	1.438000000000E-01	-1.401000000000E-01
	O47	O	2.500000000000E-01	-3.562000000000E-01	1.401000000000E-01
	O48	O	-2.500000000000E-01	3.562000000000E-01	1.401000000000E-01
	O49	O	-5.000000000000E-01	-3.230000000000E-01	2.930000000000E-01
	O50	O	-5.000000000000E-01	3.230000000000E-01	2.930000000000E-01
	O51	O	-1.266895805963E-16	-1.770000000000E-01	-2.930000000000E-01
	O52	O	8.445972039750E-17	1.770000000000E-01	-2.930000000000E-01
	O53	O	-5.000000000000E-01	-2.552000000000E-01	1.393000000000E-01
	O54	O	-5.000000000000E-01	2.552000000000E-01	1.393000000000E-01
	O55	O	-1.266895805963E-16	-2.448000000000E-01	-1.393000000000E-01
	O56	O	8.445972039750E-17	2.448000000000E-01	-1.393000000000E-01
	Si57	Si	-4.222986019875E-17	-3.933648167324E-17	1.437000000000E-01
	Si58	Si	-5.000000000000E-01	-5.000000000000E-01	-1.437000000000E-01
	Si59	Si	-5.000000000000E-01	-3.933648167324E-17	1.110000000000E-02
	Si60	Si	-1.266895805963E-16	-5.000000000000E-01	-1.110000000000E-02
	Si61	Si	-4.222986019875E-17	-1.286000000000E-01	2.273000000000E-01
	Si62	Si	-1.266895805963E-16	1.286000000000E-01	2.273000000000E-01
	Si63	Si	-5.000000000000E-01	-3.714000000000E-01	-2.273000000000E-01
	Si64	Si	-5.000000000000E-01	3.714000000000E-01	-2.273000000000E-01
	Si65	Si	-4.222986019875E-17	-2.004000000000E-01	4.057000000000E-01
	Si66	Si	-1.266895805963E-16	2.004000000000E-01	4.057000000000E-01
	Si67	Si	-5.000000000000E-01	-2.996000000000E-01	-4.057000000000E-01
	Si68	Si	-5.000000000000E-01	2.996000000000E-01	-4.057000000000E-01
	Si69	Si	-4.222986019875E-17	-3.720000000000E-01	7.870000000000E-02
	Si70	Si	-1.266895805963E-16	3.720000000000E-01	7.870000000000E-02
	Si71	Si	-5.000000000000E-01	-1.280000000000E-01	-7.870000000000E-02
	Si72	Si	-5.000000000000E-01	1.280000000000E-01	-7.870000000000E-02
	Si73	Si	-5.000000000000E-01	-2.793000000000E-01	3.840000000000E-01
	Si74	Si	-5.000000000000E-01	2.793000000000E-01	3.840000000000E-01
	Si75	Si	-1.266895805963E-16	-2.207000000000E-01	-3.840000000000E-01
	Si76	Si	8.445972039750E-17	2.207000000000E-01	-3.840000000000E-01
	Si77	Si	-5.000000000000E-01	-3.224000000000E-01	1.778000000000E-01
	Si78	Si	-5.000000000000E-01	3.224000000000E-01	1.778000000000E-01
	Si79	Si	-1.266895805963E-16	-1.776000000000E-01	-1.778000000000E-01
	Si80	Si	8.445972039750E-17	1.776000000000E-01	-1.778000000000E-01
	Si81	Si	-5.000000000000E-01	-1.842000000000E-01	1.299000000000E-01
	Si82	Si	-5.000000000000E-01	1.842000000000E-01	1.299000000000E-01
	Si83	Si	-1.266895805963E-16	-3.158000000000E-01	-1.299000000000E-01
	Si84	Si	8.445972039750E-17	3.158000000000E-01	-1.299000000000E-01


data_ STF
_chemical_name_common		'STF'
_cell_length_a		23.02921712
_cell_length_b		11.51460856
_cell_length_c		7.47700000
_cell_angle_alpha		84.508937
_cell_angle_beta		95.491063
_cell_angle_gamma		75.532195
_space group_name_H-M_alt		'P 1'
_space_group_IT_number		1

loop_
	_atom_site_label
	_atom_site_type_symbol
	_atom_site_fract_x
	_atom_site_fract_y
	_atom_site_fract_z
	O1	O	-1.770000000000E-01	3.540000000000E-01	-3.878000000000E-01
	O2	O	1.770000000000E-01	-3.540000000000E-01	3.878000000000E-01
	O3	O	-1.899000000000E-01	2.356000000000E-01	3.329000000000E-01
	O4	O	1.178000000000E-01	-3.798000000000E-01	-3.329000000000E-01
	O5	O	1.899000000000E-01	-2.356000000000E-01	-3.329000000000E-01
	O6	O	-1.178000000000E-01	3.798000000000E-01	3.329000000000E-01
	O7	O	-2.355500000000E-01	4.711000000000E-01	3.038000000000E-01
	O8	O	2.355500000000E-01	-4.711000000000E-01	-3.038000000000E-01
	O9	O	-1.594000000000E-01	4.632000000000E-01	-1.024000000000E-01
	O10	O	2.316000000000E-01	-3.188000000000E-01	1.024000000000E-01
	O11	O	1.594000000000E-01	-4.632000000000E-01	1.024000000000E-01
	O12	O	-2.316000000000E-01	3.188000000000E-01	-1.024000000000E-01
	O13	O	1.499999999999E-04	3.493000000000E-01	3.772000000000E-01
	O14	O	1.746500000000E-01	3.000000000000E-04	-3.772000000000E-01
	O15	O	-1.499999999999E-04	-3.493000000000E-01	-3.772000000000E-01
	O16	O	-1.746500000000E-01	-3.000000000000E-04	3.772000000000E-01
	O17	O	9.210000000000E-02	4.058000000000E-01	2.424000000000E-01
	O18	O	2.029000000000E-01	1.842000000000E-01	-2.424000000000E-01
	O19	O	-9.210000000000E-02	-4.058000000000E-01	-2.424000000000E-01
	O20	O	-2.029000000000E-01	-1.842000000000E-01	2.424000000000E-01
	O21	O	7.270000000000E-02	4.436000000000E-01	-4.251000000000E-01
	O22	O	2.218000000000E-01	1.454000000000E-01	4.251000000000E-01
	O23	O	-7.270000000000E-02	-4.436000000000E-01	4.251000000000E-01
	O24	O	-2.218000000000E-01	-1.454000000000E-01	-4.251000000000E-01
	O25	O	1.109000000000E-01	2.218000000000E-01	-5.000000000000E-01
	O26	O	-1.109000000000E-01	-2.218000000000E-01	-5.000000000000E-01
	O27	O	6.630000000000E-02	-4.938000000000E-01	-9.810000000000E-02
	O28	O	-2.469000000000E-01	1.326000000000E-01	9.810000000000E-02
	O29	O	-6.630000000000E-02	4.938000000000E-01	9.810000000000E-02
	O30	O	2.469000000000E-01	-1.326000000000E-01	-9.810000000000E-02
	O31	O	1.617000000000E-01	3.234000000000E-01	0.000000000000E+00
	O32	O	-1.617000000000E-01	-3.234000000000E-01	0.000000000000E+00
	Si33	Si	1.198500000000E-01	4.429000000000E-01	6.270000000000E-02
	Si34	Si	-2.785500000000E-01	2.397000000000E-01	-6.270000000000E-02
	Si35	Si	-1.198500000000E-01	-4.429000000000E-01	-6.270000000000E-02
	Si36	Si	2.785500000000E-01	-2.397000000000E-01	6.270000000000E-02
	Si37	Si	6.920000000000E-02	3.548000000000E-01	4.229000000000E-01
	Si38	Si	1.774000000000E-01	1.384000000000E-01	-4.229000000000E-01
	Si39	Si	-6.920000000000E-02	-3.548000000000E-01	-4.229000000000E-01
	Si40	Si	-1.774000000000E-01	-1.384000000000E-01	4.229000000000E-01
	Si41	Si	6.420000000000E-02	-4.444000000000E-01	-3.083000000000E-01
	Si42	Si	-2.222000000000E-01	1.284000000000E-01	3.083000000000E-01
	Si43	Si	-6.420000000000E-02	4.444000000000E-01	3.083000000000E-01
	Si44	Si	2.222000000000E-01	-1.284000000000E-01	-3.083000000000E-01
	Si45	Si	-1.800000000000E-01	3.600000000000E-01	3.954000000000E-01
	Si46	Si	1.800000000000E-01	-3.600000000000E-01	-3.954000000000E-01
	Si47	Si	-2.081000000000E-01	4.162000000000E-01	-2.246000000000E-01
	Si48	Si	2.081000000000E-01	-4.162000000000E-01	2.246000000000E-01
	O49	O	-3.230000000000E-01	-3.540000000000E-01	3.878000000000E-01
	O50	O	-3.891000000000E-01	2.218000000000E-01	-5.000000000000E-01
	O51	O	-4.998500000000E-01	3.493000000000E-01	3.772000000000E-01
	O52	O	3.891000000000E-01	-2.218000000000E-01	-5.000000000000E-01
	O53	O	2.644500000000E-01	4.711000000000E-01	3.038000000000E-01
	O54	O	-4.337000000000E-01	-4.938000000000E-01	-9.810000000000E-02
	O55	O	-3.253500000000E-01	3.000000000001E-04	-3.772000000000E-01
	O56	O	2.531000000000E-01	1.326000000000E-01	9.810000000000E-02
	O57	O	-3.822000000000E-01	-3.798000000000E-01	-3.329000000000E-01
	O58	O	4.337000000000E-01	4.938000000000E-01	9.810000000000E-02
	O59	O	4.998500000000E-01	-3.493000000000E-01	-3.772000000000E-01
	O60	O	-2.531000000000E-01	-1.326000000000E-01	-9.810000000000E-02
	O61	O	-2.644500000000E-01	-4.711000000000E-01	-3.038000000000E-01
	O62	O	-3.383000000000E-01	3.234000000000E-01	0.000000000000E+00
	O63	O	3.253500000000E-01	-3.000000000001E-04	3.772000000000E-01
	O64	O	3.383000000000E-01	-3.234000000000E-01	0.000000000000E+00
	O65	O	3.230000000000E-01	3.540000000000E-01	-3.878000000000E-01
	Si66	Si	-3.801500000000E-01	4.429000000000E-01	6.270000000000E-02
	O67	O	-4.079000000000E-01	4.058000000000E-01	2.424000000000E-01
	Si68	Si	2.214500000000E-01	2.397000000000E-01	-6.270000000000E-02
	O69	O	3.406000000000E-01	4.632000000000E-01	-1.024000000000E-01
	Si70	Si	3.801500000000E-01	-4.429000000000E-01	-6.270000000000E-02
	O71	O	-2.971000000000E-01	1.842000000000E-01	-2.424000000000E-01
	Si72	Si	-2.214500000000E-01	-2.397000000000E-01	6.270000000000E-02
	O73	O	-3.101000000000E-01	-2.356000000000E-01	-3.329000000000E-01
	Si74	Si	-4.308000000000E-01	3.548000000000E-01	4.229000000000E-01
	O75	O	4.079000000000E-01	-4.058000000000E-01	-2.424000000000E-01
	Si76	Si	-3.226000000000E-01	1.384000000000E-01	-4.229000000000E-01
	O77	O	-2.684000000000E-01	-3.188000000000E-01	1.024000000000E-01
	Si78	Si	4.308000000000E-01	-3.548000000000E-01	-4.229000000000E-01
	O79	O	2.971000000000E-01	-1.842000000000E-01	2.424000000000E-01
	Si80	Si	3.226000000000E-01	-1.384000000000E-01	4.229000000000E-01
	O81	O	3.101000000000E-01	2.356000000000E-01	3.329000000000E-01
	Si82	Si	-4.358000000000E-01	-4.444000000000E-01	-3.083000000000E-01
	O83	O	-4.273000000000E-01	4.436000000000E-01	-4.251000000000E-01
	Si84	Si	2.778000000000E-01	1.284000000000E-01	3.083000000000E-01
	O85	O	-3.406000000000E-01	-4.632000000000E-01	1.024000000000E-01
	Si86	Si	4.358000000000E-01	4.444000000000E-01	3.083000000000E-01
	O87	O	-2.782000000000E-01	1.454000000000E-01	4.251000000000E-01
	Si88	Si	-2.778000000000E-01	-1.284000000000E-01	-3.083000000000E-01
	O89	O	3.822000000000E-01	3.798000000000E-01	3.329000000000E-01
	Si90	Si	3.200000000000E-01	3.600000000000E-01	3.954000000000E-01
	O91	O	4.273000000000E-01	-4.436000000000E-01	4.251000000000E-01
	Si92	Si	-3.200000000000E-01	-3.600000000000E-01	-3.954000000000E-01
	O93	O	2.684000000000E-01	3.188000000000E-01	-1.024000000000E-01
	Si94	Si	2.919000000000E-01	4.162000000000E-01	-2.246000000000E-01
	O95	O	2.782000000000E-01	-1.454000000000E-01	-4.251000000000E-01
	Si96	Si	-2.919000000000E-01	-4.162000000000E-01	2.246000000000E-01


data_ SVV
_chemical_name_common		'SVV'
_cell_length_a		9.36834539
_cell_length_b		9.36834539
_cell_length_c		21.26198000
_cell_angle_alpha		67.168605
_cell_angle_beta		112.831395
_cell_angle_gamma		88.917540
_space group_name_H-M_alt		'P 1'
_space_group_IT_number		1

loop_
	_atom_site_label
	_atom_site_type_symbol
	_atom_site_fract_x
	_atom_site_fract_y
	_atom_site_fract_z
	Si1	Si	-2.759800000000E-01	-1.680200000000E-01	4.824000000000E-02
	Si2	Si	-1.680200000000E-01	-2.759800000000E-01	-4.824000000000E-02
	Si3	Si	2.759800000000E-01	1.680200000000E-01	-4.824000000000E-02
	Si4	Si	1.680200000000E-01	2.759800000000E-01	4.824000000000E-02
	Si5	Si	4.144200000000E-01	-1.801000000000E-01	7.319000000000E-02
	Si6	Si	-1.801000000000E-01	4.144200000000E-01	-7.319000000000E-02
	Si7	Si	-4.144200000000E-01	1.801000000000E-01	-7.319000000000E-02
	Si8	Si	1.801000000000E-01	-4.144200000000E-01	7.319000000000E-02
	Si9	Si	2.229300000000E-01	7.010000000000E-03	2.047400000000E-01
	Si10	Si	7.010000000000E-03	2.229300000000E-01	-2.047400000000E-01
	Si11	Si	-2.229300000000E-01	-7.010000000000E-03	-2.047400000000E-01
	Si12	Si	-7.010000000000E-03	-2.229300000000E-01	2.047400000000E-01
	Si13	Si	4.742600000000E-01	-2.474200000000E-01	2.356200000000E-01
	Si14	Si	-2.474200000000E-01	4.742600000000E-01	-2.356200000000E-01
	Si15	Si	-4.742600000000E-01	2.474200000000E-01	-2.356200000000E-01
	Si16	Si	2.474200000000E-01	-4.742600000000E-01	2.356200000000E-01
	Si17	Si	3.367600000000E-01	1.558000000000E-01	3.178000000000E-01
	Si18	Si	1.558000000000E-01	3.367600000000E-01	-3.178000000000E-01
	Si19	Si	-3.367600000000E-01	-1.558000000000E-01	-3.178000000000E-01
	Si20	Si	-1.558000000000E-01	-3.367600000000E-01	3.178000000000E-01
	Si21	Si	-2.981100000000E-01	6.797000000000E-02	3.974800000000E-01
	Si22	Si	6.797000000000E-02	-2.981100000000E-01	-3.974800000000E-01
	Si23	Si	2.981100000000E-01	-6.797000000000E-02	-3.974800000000E-01
	Si24	Si	-6.797000000000E-02	2.981100000000E-01	3.974800000000E-01
	Si25	Si	1.905600000000E-01	3.958000000000E-02	4.312500000000E-01
	Si26	Si	3.958000000000E-02	1.905600000000E-01	-4.312500000000E-01
	Si27	Si	-1.905600000000E-01	-3.958000000000E-02	-4.312500000000E-01
	Si28	Si	-3.958000000000E-02	-1.905600000000E-01	4.312500000000E-01
	O29	O	-1.152900000000E-01	-2.222900000000E-01	1.244800000000E-01
	O30	O	-2.222900000000E-01	-1.152900000000E-01	-1.244800000000E-01
	O31	O	1.152900000000E-01	2.222900000000E-01	-1.244800000000E-01
	O32	O	2.222900000000E-01	1.152900000000E-01	1.244800000000E-01
	O33	O	-2.581200000000E-01	-2.581200000000E-01	0.000000000000E+00
	O34	O	2.581200000000E-01	2.581200000000E-01	0.000000000000E+00
	O35	O	-3.066800000000E-01	1.986000000000E-02	-5.900000000000E-04
	O36	O	1.986000000000E-02	-3.066800000000E-01	5.900000000000E-04
	O37	O	3.066800000000E-01	-1.986000000000E-02	5.900000000000E-04
	O38	O	-1.986000000000E-02	3.066800000000E-01	-5.900000000000E-04
	O39	O	-4.207000000000E-01	-2.155000000000E-01	6.969000000000E-02
	O40	O	-2.155000000000E-01	-4.207000000000E-01	-6.969000000000E-02
	O41	O	4.207000000000E-01	2.155000000000E-01	-6.969000000000E-02
	O42	O	2.155000000000E-01	4.207000000000E-01	6.969000000000E-02
	O43	O	4.500600000000E-01	-1.597200000000E-01	1.493500000000E-01
	O44	O	-1.597200000000E-01	4.500600000000E-01	-1.493500000000E-01
	O45	O	-4.500600000000E-01	1.597200000000E-01	-1.493500000000E-01
	O46	O	1.597200000000E-01	-4.500600000000E-01	1.493500000000E-01
	O47	O	3.251500000000E-01	-3.251500000000E-01	7.319000000000E-02
	O48	O	-3.251500000000E-01	3.251500000000E-01	-7.319000000000E-02
	O49	O	3.750700000000E-01	-1.352500000000E-01	2.521700000000E-01
	O50	O	-1.352500000000E-01	3.750700000000E-01	-2.521700000000E-01
	O51	O	-3.750700000000E-01	1.352500000000E-01	-2.521700000000E-01
	O52	O	1.352500000000E-01	-3.750700000000E-01	2.521700000000E-01
	O53	O	6.441000000000E-02	-6.441000000000E-02	1.911900000000E-01
	O54	O	-6.441000000000E-02	6.441000000000E-02	-1.911900000000E-01
	O55	O	2.303300000000E-01	1.115300000000E-01	2.503300000000E-01
	O56	O	1.115300000000E-01	2.303300000000E-01	-2.503300000000E-01
	O57	O	-2.303300000000E-01	-1.115300000000E-01	-2.503300000000E-01
	O58	O	-1.115300000000E-01	-2.303300000000E-01	2.503300000000E-01
	O59	O	-3.416000000000E-01	-2.857200000000E-01	2.924800000000E-01
	O60	O	-2.857200000000E-01	-3.416000000000E-01	-2.924800000000E-01
	O61	O	3.416000000000E-01	2.857200000000E-01	-2.924800000000E-01
	O62	O	2.857200000000E-01	3.416000000000E-01	2.924800000000E-01
	O63	O	4.098500000000E-01	-4.098500000000E-01	2.484200000000E-01
	O64	O	-4.098500000000E-01	4.098500000000E-01	-2.484200000000E-01
	O65	O	3.092100000000E-01	5.685000000000E-02	3.917700000000E-01
	O66	O	5.685000000000E-02	3.092100000000E-01	-3.917700000000E-01
	O67	O	-3.092100000000E-01	-5.685000000000E-02	-3.917700000000E-01
	O68	O	-5.685000000000E-02	-3.092100000000E-01	3.917700000000E-01
	O69	O	-4.798000000000E-01	1.134000000000E-01	3.364700000000E-01
	O70	O	1.134000000000E-01	-4.798000000000E-01	-3.364700000000E-01
	O71	O	4.798000000000E-01	-1.134000000000E-01	-3.364700000000E-01
	O72	O	-1.134000000000E-01	4.798000000000E-01	3.364700000000E-01
	O73	O	-2.104600000000E-01	2.104600000000E-01	3.708800000000E-01
	O74	O	2.104600000000E-01	-2.104600000000E-01	-3.708800000000E-01
	O75	O	-2.911800000000E-01	3.940000000000E-02	4.784000000000E-01
	O76	O	3.940000000000E-02	-2.911800000000E-01	-4.784000000000E-01
	O77	O	2.911800000000E-01	-3.940000000000E-02	-4.784000000000E-01
	O78	O	-3.940000000000E-02	2.911800000000E-01	4.784000000000E-01
	O79	O	-2.109200000000E-01	-9.050000000000E-02	4.041200000000E-01
	O80	O	-9.050000000000E-02	-2.109200000000E-01	-4.041200000000E-01
	O81	O	2.109200000000E-01	9.050000000000E-02	-4.041200000000E-01
	O82	O	9.050000000000E-02	2.109200000000E-01	4.041200000000E-01
	O83	O	7.135000000000E-02	-7.135000000000E-02	4.076900000000E-01
	O84	O	-7.135000000000E-02	7.135000000000E-02	-4.076900000000E-01


data_ SZR
_chemical_name_common		'SZR'
_cell_length_a		11.86871624
_cell_length_b		23.73743249
_cell_length_c		7.51400000
_cell_angle_alpha		90.000000
_cell_angle_beta		90.000000
_cell_angle_gamma		105.300494
_space group_name_H-M_alt		'P 1'
_space_group_IT_number		1

loop_
	_atom_site_label
	_atom_site_type_symbol
	_atom_site_fract_x
	_atom_site_fract_y
	_atom_site_fract_z
	O1	O	2.145000000000E-01	1.072500000000E-01	2.464000000000E-01
	O2	O	-2.145000000000E-01	-1.072500000000E-01	2.464000000000E-01
	O3	O	-2.145000000000E-01	-1.072500000000E-01	-2.464000000000E-01
	O4	O	2.145000000000E-01	1.072500000000E-01	-2.464000000000E-01
	O5	O	1.941000000000E-01	-5.850000000000E-03	2.474000000000E-01
	O6	O	-1.941000000000E-01	5.850000000000E-03	2.474000000000E-01
	O7	O	1.170000000000E-02	-9.705000000000E-02	-2.474000000000E-01
	O8	O	-1.170000000000E-02	9.705000000000E-02	-2.474000000000E-01
	O9	O	-1.941000000000E-01	5.850000000000E-03	-2.474000000000E-01
	O10	O	1.941000000000E-01	-5.850000000000E-03	-2.474000000000E-01
	O11	O	-1.170000000000E-02	9.705000000000E-02	2.474000000000E-01
	O12	O	1.170000000000E-02	-9.705000000000E-02	2.474000000000E-01
	O13	O	2.201000000000E-01	-1.100500000000E-01	1.751000000000E-01
	O14	O	-2.201000000000E-01	1.100500000000E-01	1.751000000000E-01
	O15	O	2.201000000000E-01	-1.100500000000E-01	-1.751000000000E-01
	O16	O	-2.201000000000E-01	1.100500000000E-01	-1.751000000000E-01
	O17	O	-5.000000000000E-01	5.796314902141E-17	0.000000000000E+00
	O18	O	8.328941333973E-17	2.500000000000E-01	0.000000000000E+00
	O19	O	4.097000000000E-01	-1.137500000000E-01	0.000000000000E+00
	O20	O	-4.097000000000E-01	1.137500000000E-01	0.000000000000E+00
	O21	O	2.275000000000E-01	-2.048500000000E-01	0.000000000000E+00
	O22	O	-2.275000000000E-01	2.048500000000E-01	0.000000000000E+00
	O23	O	3.965000000000E-01	6.805000000000E-02	1.751000000000E-01
	O24	O	-3.965000000000E-01	-6.805000000000E-02	1.751000000000E-01
	O25	O	-1.361000000000E-01	-1.982500000000E-01	-1.751000000000E-01
	O26	O	1.361000000000E-01	1.982500000000E-01	-1.751000000000E-01
	O27	O	-3.965000000000E-01	-6.805000000000E-02	-1.751000000000E-01
	O28	O	3.965000000000E-01	6.805000000000E-02	-1.751000000000E-01
	O29	O	1.361000000000E-01	1.982500000000E-01	1.751000000000E-01
	O30	O	-1.361000000000E-01	-1.982500000000E-01	1.751000000000E-01
	O31	O	1.699000000000E-01	-8.495000000000E-02	-5.000000000000E-01
	O32	O	-1.699000000000E-01	8.495000000000E-02	-5.000000000000E-01
	O33	O	3.138000000000E-01	6.070000000000E-02	-5.000000000000E-01
	O34	O	-3.138000000000E-01	-6.070000000000E-02	-5.000000000000E-01
	O35	O	-1.214000000000E-01	-1.569000000000E-01	-5.000000000000E-01
	O36	O	1.214000000000E-01	1.569000000000E-01	-5.000000000000E-01
	Si37	Si	2.793000000000E-01	5.745000000000E-02	2.925000000000E-01
	Si38	Si	-2.793000000000E-01	-5.745000000000E-02	2.925000000000E-01
	Si39	Si	-1.149000000000E-01	-1.396500000000E-01	-2.925000000000E-01
	Si40	Si	1.149000000000E-01	1.396500000000E-01	-2.925000000000E-01
	Si41	Si	-2.793000000000E-01	-5.745000000000E-02	-2.925000000000E-01
	Si42	Si	2.793000000000E-01	5.745000000000E-02	-2.925000000000E-01
	Si43	Si	1.149000000000E-01	1.396500000000E-01	2.925000000000E-01
	Si44	Si	-1.149000000000E-01	-1.396500000000E-01	2.925000000000E-01
	Si45	Si	4.707000000000E-01	6.235000000000E-02	0.000000000000E+00
	Si46	Si	-4.707000000000E-01	-6.235000000000E-02	0.000000000000E+00
	Si47	Si	-1.247000000000E-01	-2.353500000000E-01	0.000000000000E+00
	Si48	Si	1.247000000000E-01	2.353500000000E-01	0.000000000000E+00
	Si49	Si	1.488000000000E-01	-7.440000000000E-02	2.925000000000E-01
	Si50	Si	-1.488000000000E-01	7.440000000000E-02	2.925000000000E-01
	Si51	Si	1.488000000000E-01	-7.440000000000E-02	-2.925000000000E-01
	Si52	Si	-1.488000000000E-01	7.440000000000E-02	-2.925000000000E-01
	Si53	Si	2.692000000000E-01	-1.346000000000E-01	0.000000000000E+00
	Si54	Si	-2.692000000000E-01	1.346000000000E-01	0.000000000000E+00
	O55	O	-2.201000000000E-01	-3.899500000000E-01	1.751000000000E-01
	O56	O	3.965000000000E-01	-4.319500000000E-01	-1.751000000000E-01
	O57	O	2.145000000000E-01	-3.927500000000E-01	-2.464000000000E-01
	O58	O	1.361000000000E-01	-3.017500000000E-01	1.751000000000E-01
	O59	O	2.201000000000E-01	3.899500000000E-01	-1.751000000000E-01
	O60	O	-1.361000000000E-01	3.017500000000E-01	1.751000000000E-01
	O61	O	-1.170000000000E-02	-4.029500000000E-01	-2.474000000000E-01
	O62	O	1.699000000000E-01	4.150500000000E-01	-5.000000000000E-01
	O63	O	-2.201000000000E-01	-3.899500000000E-01	-1.751000000000E-01
	O64	O	-1.699000000000E-01	-4.150500000000E-01	-5.000000000000E-01
	O65	O	2.145000000000E-01	-3.927500000000E-01	2.464000000000E-01
	O66	O	3.138000000000E-01	-4.393000000000E-01	-5.000000000000E-01
	O67	O	-5.000000000000E-01	-5.000000000000E-01	0.000000000000E+00
	O68	O	-3.138000000000E-01	4.393000000000E-01	-5.000000000000E-01
	O69	O	-1.941000000000E-01	-4.941500000000E-01	-2.474000000000E-01
	O70	O	-1.214000000000E-01	3.431000000000E-01	-5.000000000000E-01
	O71	O	1.582804279352E-16	-2.500000000000E-01	0.000000000000E+00
	O72	O	1.214000000000E-01	-3.431000000000E-01	-5.000000000000E-01
	O73	O	1.941000000000E-01	4.941500000000E-01	2.474000000000E-01
	Si74	Si	2.793000000000E-01	-4.425500000000E-01	2.925000000000E-01
	O75	O	4.097000000000E-01	3.862500000000E-01	0.000000000000E+00
	Si76	Si	-2.793000000000E-01	4.425500000000E-01	2.925000000000E-01
	O77	O	1.941000000000E-01	4.941500000000E-01	-2.474000000000E-01
	Si78	Si	-1.149000000000E-01	3.603500000000E-01	-2.925000000000E-01
	O79	O	-4.097000000000E-01	-3.862500000000E-01	0.000000000000E+00
	Si80	Si	1.149000000000E-01	-3.603500000000E-01	-2.925000000000E-01
	O81	O	-2.145000000000E-01	3.927500000000E-01	-2.464000000000E-01
	Si82	Si	-2.793000000000E-01	4.425500000000E-01	-2.925000000000E-01
	O83	O	2.275000000000E-01	2.951500000000E-01	0.000000000000E+00
	Si84	Si	2.793000000000E-01	-4.425500000000E-01	-2.925000000000E-01
	O85	O	-1.170000000000E-02	-4.029500000000E-01	2.474000000000E-01
	Si86	Si	1.149000000000E-01	-3.603500000000E-01	2.925000000000E-01
	O87	O	-2.275000000000E-01	-2.951500000000E-01	0.000000000000E+00
	Si88	Si	-1.149000000000E-01	3.603500000000E-01	2.925000000000E-01
	O89	O	-1.941000000000E-01	-4.941500000000E-01	2.474000000000E-01
	Si90	Si	4.707000000000E-01	-4.376500000000E-01	0.000000000000E+00
	O91	O	3.965000000000E-01	-4.319500000000E-01	1.751000000000E-01
	Si92	Si	-4.707000000000E-01	4.376500000000E-01	0.000000000000E+00
	O93	O	1.170000000000E-02	4.029500000000E-01	2.474000000000E-01
	Si94	Si	-1.247000000000E-01	2.646500000000E-01	0.000000000000E+00
	O95	O	-3.965000000000E-01	4.319500000000E-01	1.751000000000E-01
	Si96	Si	1.247000000000E-01	-2.646500000000E-01	0.000000000000E+00
	O97	O	-2.145000000000E-01	3.927500000000E-01	2.464000000000E-01
	Si98	Si	1.488000000000E-01	4.256000000000E-01	2.925000000000E-01
	O99	O	-1.361000000000E-01	3.017500000000E-01	-1.751000000000E-01
	Si100	Si	-1.488000000000E-01	-4.256000000000E-01	2.925000000000E-01
	O101	O	2.201000000000E-01	3.899500000000E-01	1.751000000000E-01
	Si102	Si	1.488000000000E-01	4.256000000000E-01	-2.925000000000E-01
	O103	O	1.361000000000E-01	-3.017500000000E-01	-1.751000000000E-01
	Si104	Si	-1.488000000000E-01	-4.256000000000E-01	-2.925000000000E-01
	O105	O	1.170000000000E-02	4.029500000000E-01	-2.474000000000E-01
	Si106	Si	2.692000000000E-01	3.654000000000E-01	0.000000000000E+00
	O107	O	-3.965000000000E-01	4.319500000000E-01	-1.751000000000E-01
	Si108	Si	-2.692000000000E-01	-3.654000000000E-01	0.000000000000E+00


data_ UEI
_chemical_name_common		'UEI'
_cell_length_a		8.88344880
_cell_length_b		12.31780266
_cell_length_c		21.59010887
_cell_angle_alpha		44.603783
_cell_angle_beta		76.823279
_cell_angle_gamma		58.572938
_space group_name_H-M_alt		'P 1'
_space_group_IT_number		1

loop_
	_atom_site_label
	_atom_site_type_symbol
	_atom_site_fract_x
	_atom_site_fract_y
	_atom_site_fract_z
	O1	O	1.040000000000E-01	1.040000000000E-01	-3.020000000000E-01
	O2	O	-3.960000000000E-01	-3.960000000000E-01	-5.200000000000E-02
	O3	O	2.906000000000E-01	1.862000000000E-01	7.110000000000E-02
	O4	O	1.862000000000E-01	2.906000000000E-01	-3.095000000000E-01
	O5	O	-3.810000000000E-01	-1.422000000000E-01	-9.310000000000E-02
	O6	O	-1.422000000000E-01	-3.810000000000E-01	-1.453000000000E-01
	O7	O	8.170000000000E-02	-2.727000000000E-01	2.524500000000E-01
	O8	O	-2.727000000000E-01	8.170000000000E-02	-1.569500000000E-01
	O9	O	3.139000000000E-01	4.951000000000E-01	1.363500000000E-01
	O10	O	4.951000000000E-01	3.139000000000E-01	-4.085000000000E-02
	O11	O	-2.706000000000E-01	4.210000000000E-01	-9.450000000000E-02
	O12	O	4.210000000000E-01	-2.706000000000E-01	1.930000000000E-02
	O13	O	-3.860000000000E-02	1.890000000000E-01	-2.105000000000E-01
	O14	O	1.890000000000E-01	-3.860000000000E-02	1.353000000000E-01
	O15	O	-1.249000000000E-01	-1.249000000000E-01	-1.875500000000E-01
	O16	O	3.751000000000E-01	3.751000000000E-01	6.245000000000E-02
	O17	O	1.467000000000E-01	-4.607000000000E-01	-7.335000000000E-02
	O18	O	-4.607000000000E-01	1.467000000000E-01	2.303500000000E-01
	O19	O	2.981000000000E-01	-3.069000000000E-01	1.534500000000E-01
	O20	O	-3.069000000000E-01	2.981000000000E-01	-1.490500000000E-01
	O21	O	-5.990000000000E-02	3.135000000000E-01	2.995000000000E-02
	O22	O	3.135000000000E-01	-5.990000000000E-02	-1.567500000000E-01
	O23	O	4.270000000000E-01	-3.804000000000E-01	-2.135000000000E-01
	O24	O	-3.804000000000E-01	4.270000000000E-01	-3.098000000000E-01
	Si25	Si	-2.158000000000E-01	4.878000000000E-01	-6.460000000000E-02
	Si26	Si	4.878000000000E-01	-2.158000000000E-01	-7.140000000000E-02
	Si27	Si	1.428000000000E-01	1.292000000000E-01	-2.439000000000E-01
	Si28	Si	1.292000000000E-01	1.428000000000E-01	1.079000000000E-01
	Si29	Si	3.300000000000E-01	3.502000000000E-01	5.600000000000E-03
	Si30	Si	3.502000000000E-01	3.300000000000E-01	1.543000000000E-01
	Si31	Si	-3.086000000000E-01	-1.120000000000E-02	-1.751000000000E-01
	Si32	Si	-1.120000000000E-02	-3.086000000000E-01	3.350000000000E-01
	Si33	Si	2.505000000000E-01	-2.505000000000E-01	2.074500000000E-01
	Si34	Si	-2.505000000000E-01	2.505000000000E-01	-2.074500000000E-01
	Si35	Si	4.149000000000E-01	-4.149000000000E-01	1.252500000000E-01
	Si36	Si	-4.149000000000E-01	4.149000000000E-01	-1.252500000000E-01
	O37	O	-3.810000000000E-01	-1.422000000000E-01	4.069000000000E-01
	O38	O	2.981000000000E-01	-3.069000000000E-01	-3.465500000000E-01
	O39	O	4.951000000000E-01	3.139000000000E-01	4.591500000000E-01
	O40	O	-3.069000000000E-01	2.981000000000E-01	3.509500000000E-01
	O41	O	2.906000000000E-01	1.862000000000E-01	-4.289000000000E-01
	O42	O	-5.990000000000E-02	3.135000000000E-01	-4.700500000000E-01
	O43	O	-2.706000000000E-01	4.210000000000E-01	4.055000000000E-01
	O44	O	3.135000000000E-01	-5.990000000000E-02	3.432500000000E-01
	O45	O	-1.422000000000E-01	-3.810000000000E-01	3.547000000000E-01
	O46	O	4.270000000000E-01	-3.804000000000E-01	2.865000000000E-01
	O47	O	4.210000000000E-01	-2.706000000000E-01	-4.807000000000E-01
	O48	O	-3.804000000000E-01	4.270000000000E-01	1.902000000000E-01
	O49	O	-3.960000000000E-01	-3.960000000000E-01	4.480000000000E-01
	Si50	Si	-2.158000000000E-01	4.878000000000E-01	4.354000000000E-01
	O51	O	-3.860000000000E-02	1.890000000000E-01	2.895000000000E-01
	Si52	Si	4.878000000000E-01	-2.158000000000E-01	4.286000000000E-01
	O53	O	8.170000000000E-02	-2.727000000000E-01	-2.475500000000E-01
	Si54	Si	1.428000000000E-01	1.292000000000E-01	2.561000000000E-01
	O55	O	1.890000000000E-01	-3.860000000000E-02	-3.647000000000E-01
	Si56	Si	1.292000000000E-01	1.428000000000E-01	-3.921000000000E-01
	O57	O	1.862000000000E-01	2.906000000000E-01	1.905000000000E-01
	Si58	Si	3.300000000000E-01	3.502000000000E-01	-4.944000000000E-01
	O59	O	-1.249000000000E-01	-1.249000000000E-01	3.124500000000E-01
	Si60	Si	3.502000000000E-01	3.300000000000E-01	-3.457000000000E-01
	O61	O	-2.727000000000E-01	8.170000000000E-02	3.430500000000E-01
	Si62	Si	-3.086000000000E-01	-1.120000000000E-02	3.249000000000E-01
	O63	O	3.751000000000E-01	3.751000000000E-01	-4.375500000000E-01
	Si64	Si	-1.120000000000E-02	-3.086000000000E-01	-1.650000000000E-01
	O65	O	1.040000000000E-01	1.040000000000E-01	1.980000000000E-01
	Si66	Si	2.505000000000E-01	-2.505000000000E-01	-2.925500000000E-01
	O67	O	1.467000000000E-01	-4.607000000000E-01	4.266500000000E-01
	Si68	Si	-2.505000000000E-01	2.505000000000E-01	2.925500000000E-01
	O69	O	3.139000000000E-01	4.951000000000E-01	-3.636500000000E-01
	Si70	Si	4.149000000000E-01	-4.149000000000E-01	-3.747500000000E-01
	O71	O	-4.607000000000E-01	1.467000000000E-01	-2.696500000000E-01
	Si72	Si	-4.149000000000E-01	4.149000000000E-01	3.747500000000E-01


data_ UFI
_chemical_name_common		'UFI'
_cell_length_a		16.68870686
_cell_length_b		16.68870686
_cell_length_c		16.68870686
_cell_angle_alpha		137.397740
_cell_angle_beta		137.397740
_cell_angle_gamma		61.826652
_space group_name_H-M_alt		'P 1'
_space_group_IT_number		1

loop_
	_atom_site_label
	_atom_site_type_symbol
	_atom_site_fract_x
	_atom_site_fract_y
	_atom_site_fract_z
	O1	O	8.260000000000E-02	3.773000000000E-01	2.947000000000E-01
	O2	O	8.260000000000E-02	-2.121000000000E-01	-2.947000000000E-01
	O3	O	-8.260000000000E-02	2.121000000000E-01	2.947000000000E-01
	O4	O	-8.260000000000E-02	-3.773000000000E-01	-2.947000000000E-01
	O5	O	-3.773000000000E-01	-8.260000000000E-02	-2.947000000000E-01
	O6	O	2.121000000000E-01	-8.260000000000E-02	2.947000000000E-01
	O7	O	-2.121000000000E-01	8.260000000000E-02	-2.947000000000E-01
	O8	O	3.773000000000E-01	8.260000000000E-02	2.947000000000E-01
	O9	O	1.278301926017E-17	2.039000000000E-01	2.039000000000E-01
	O10	O	2.598017881070E-17	-2.039000000000E-01	-2.039000000000E-01
	O11	O	-2.039000000000E-01	-9.814458938565E-18	-2.039000000000E-01
	O12	O	2.039000000000E-01	9.814458938565E-18	2.039000000000E-01
	O13	O	1.766000000000E-01	1.766000000000E-01	2.168000000000E-01
	O14	O	-4.020000000000E-02	-4.020000000000E-02	-2.168000000000E-01
	O15	O	-1.766000000000E-01	4.020000000000E-02	-1.705580221206E-18
	O16	O	4.020000000000E-02	-1.766000000000E-01	1.705580221206E-18
	O17	O	-1.766000000000E-01	-1.766000000000E-01	-2.168000000000E-01
	O18	O	4.020000000000E-02	4.020000000000E-02	2.168000000000E-01
	O19	O	-4.020000000000E-02	1.766000000000E-01	-1.705580221206E-18
	O20	O	1.766000000000E-01	-4.020000000000E-02	1.705580221206E-18
	O21	O	3.778000000000E-01	-3.778000000000E-01	-5.000000000000E-01
	O22	O	1.222000000000E-01	-1.222000000000E-01	-5.000000000000E-01
	O23	O	-3.778000000000E-01	1.222000000000E-01	2.444000000000E-01
	O24	O	-1.222000000000E-01	3.778000000000E-01	-2.444000000000E-01
	O25	O	-3.778000000000E-01	3.778000000000E-01	-5.000000000000E-01
	O26	O	-1.222000000000E-01	1.222000000000E-01	-5.000000000000E-01
	O27	O	3.778000000000E-01	-1.222000000000E-01	-2.444000000000E-01
	O28	O	1.222000000000E-01	-3.778000000000E-01	2.444000000000E-01
	O29	O	2.667000000000E-01	-4.984000000000E-01	4.509000000000E-01
	O30	O	5.070000000000E-02	-1.842000000000E-01	-4.509000000000E-01
	O31	O	-2.667000000000E-01	1.842000000000E-01	2.349000000000E-01
	O32	O	-5.070000000000E-02	4.984000000000E-01	-2.349000000000E-01
	O33	O	4.984000000000E-01	-2.667000000000E-01	-4.509000000000E-01
	O34	O	1.842000000000E-01	-5.070000000000E-02	4.509000000000E-01
	O35	O	-1.842000000000E-01	2.667000000000E-01	-2.349000000000E-01
	O36	O	-4.984000000000E-01	5.070000000000E-02	2.349000000000E-01
	O37	O	-2.667000000000E-01	4.984000000000E-01	-4.509000000000E-01
	O38	O	-5.070000000000E-02	1.842000000000E-01	4.509000000000E-01
	O39	O	2.667000000000E-01	-1.842000000000E-01	-2.349000000000E-01
	O40	O	5.070000000000E-02	-4.984000000000E-01	2.349000000000E-01
	O41	O	-4.984000000000E-01	2.667000000000E-01	4.509000000000E-01
	O42	O	-1.842000000000E-01	5.070000000000E-02	-4.509000000000E-01
	O43	O	1.842000000000E-01	-2.667000000000E-01	2.349000000000E-01
	O44	O	4.984000000000E-01	-5.070000000000E-02	-2.349000000000E-01
	O45	O	4.255000000000E-01	-3.084000000000E-01	-2.661000000000E-01
	O46	O	-4.230000000000E-02	-3.084000000000E-01	2.661000000000E-01
	O47	O	-4.255000000000E-01	3.084000000000E-01	2.661000000000E-01
	O48	O	4.230000000000E-02	3.084000000000E-01	-2.661000000000E-01
	O49	O	3.084000000000E-01	-4.255000000000E-01	2.661000000000E-01
	O50	O	3.084000000000E-01	4.230000000000E-02	-2.661000000000E-01
	O51	O	-3.084000000000E-01	4.255000000000E-01	-2.661000000000E-01
	O52	O	-3.084000000000E-01	-4.230000000000E-02	2.661000000000E-01
	O53	O	4.960000000000E-01	4.960000000000E-01	-4.108000000000E-01
	O54	O	-9.320000000000E-02	-9.320000000000E-02	4.108000000000E-01
	O55	O	-4.960000000000E-01	9.320000000000E-02	-6.286646239840E-19
	O56	O	9.320000000000E-02	-4.960000000000E-01	1.737661778438E-17
	O57	O	-4.960000000000E-01	-4.960000000000E-01	4.108000000000E-01
	O58	O	9.320000000000E-02	9.320000000000E-02	-4.108000000000E-01
	O59	O	-9.320000000000E-02	4.960000000000E-01	-1.737661778438E-17
	O60	O	4.960000000000E-01	-9.320000000000E-02	6.286646239840E-19
	O61	O	1.138000000000E-01	-3.862000000000E-01	-5.000000000000E-01
	O62	O	-1.138000000000E-01	3.862000000000E-01	-5.000000000000E-01
	O63	O	3.862000000000E-01	-1.138000000000E-01	-5.000000000000E-01
	O64	O	-3.862000000000E-01	1.138000000000E-01	-5.000000000000E-01
	Si65	Si	5.520000000000E-02	2.340000000000E-01	1.788000000000E-01
	Si66	Si	5.520000000000E-02	-1.236000000000E-01	-1.788000000000E-01
	Si67	Si	-5.520000000000E-02	1.236000000000E-01	1.788000000000E-01
	Si68	Si	-5.520000000000E-02	-2.340000000000E-01	-1.788000000000E-01
	Si69	Si	-2.340000000000E-01	-5.520000000000E-02	-1.788000000000E-01
	Si70	Si	1.236000000000E-01	-5.520000000000E-02	1.788000000000E-01
	Si71	Si	-1.236000000000E-01	5.520000000000E-02	-1.788000000000E-01
	Si72	Si	2.340000000000E-01	5.520000000000E-02	1.788000000000E-01
	Si73	Si	3.908000000000E-01	-4.233000000000E-01	-4.335000000000E-01
	Si74	Si	1.020000000000E-02	-1.757000000000E-01	4.335000000000E-01
	Si75	Si	-3.908000000000E-01	1.757000000000E-01	1.859000000000E-01
	Si76	Si	-1.020000000000E-02	4.233000000000E-01	-1.859000000000E-01
	Si77	Si	4.233000000000E-01	-3.908000000000E-01	4.335000000000E-01
	Si78	Si	1.757000000000E-01	-1.020000000000E-02	-4.335000000000E-01
	Si79	Si	-1.757000000000E-01	3.908000000000E-01	-1.859000000000E-01
	Si80	Si	-4.233000000000E-01	1.020000000000E-02	1.859000000000E-01
	Si81	Si	-3.908000000000E-01	4.233000000000E-01	4.335000000000E-01
	Si82	Si	-1.020000000000E-02	1.757000000000E-01	-4.335000000000E-01
	Si83	Si	3.908000000000E-01	-1.757000000000E-01	-1.859000000000E-01
	Si84	Si	1.020000000000E-02	-4.233000000000E-01	1.859000000000E-01
	Si85	Si	-4.233000000000E-01	3.908000000000E-01	-4.335000000000E-01
	Si86	Si	-1.757000000000E-01	1.020000000000E-02	4.335000000000E-01
	Si87	Si	1.757000000000E-01	-3.908000000000E-01	1.859000000000E-01
	Si88	Si	4.233000000000E-01	-1.020000000000E-02	-1.859000000000E-01
	Si89	Si	1.284000000000E-01	-4.998000000000E-01	3.718000000000E-01
	Si90	Si	1.284000000000E-01	-2.434000000000E-01	-3.718000000000E-01
	Si91	Si	-1.284000000000E-01	2.434000000000E-01	3.718000000000E-01
	Si92	Si	-1.284000000000E-01	4.998000000000E-01	-3.718000000000E-01
	Si93	Si	4.998000000000E-01	-1.284000000000E-01	-3.718000000000E-01
	Si94	Si	2.434000000000E-01	-1.284000000000E-01	3.718000000000E-01
	Si95	Si	-2.434000000000E-01	1.284000000000E-01	-3.718000000000E-01
	Si96	Si	-4.998000000000E-01	1.284000000000E-01	3.718000000000E-01


data_ UOZ
_chemical_name_common		'UOZ'
_cell_length_a		8.62100000
_cell_length_b		8.62100000
_cell_length_c		27.54400000
_cell_angle_alpha		90.000000
_cell_angle_beta		90.000000
_cell_angle_gamma		90.000000
_space group_name_H-M_alt		'P 1'
_space_group_IT_number		1

loop_
	_atom_site_label
	_atom_site_type_symbol
	_atom_site_fract_x
	_atom_site_fract_y
	_atom_site_fract_z
	O1	O	3.887000000000E-01	1.037000000000E-01	2.840000000000E-01
	O2	O	-3.887000000000E-01	-1.037000000000E-01	2.840000000000E-01
	O3	O	3.887000000000E-01	-1.037000000000E-01	-2.840000000000E-01
	O4	O	-3.887000000000E-01	1.037000000000E-01	-2.840000000000E-01
	O5	O	-1.037000000000E-01	-3.887000000000E-01	-2.840000000000E-01
	O6	O	1.037000000000E-01	3.887000000000E-01	-2.840000000000E-01
	O7	O	1.037000000000E-01	-3.887000000000E-01	2.840000000000E-01
	O8	O	-1.037000000000E-01	3.887000000000E-01	2.840000000000E-01
	O9	O	1.113000000000E-01	3.963000000000E-01	2.160000000000E-01
	O10	O	-1.113000000000E-01	-3.963000000000E-01	2.160000000000E-01
	O11	O	1.113000000000E-01	-3.963000000000E-01	-2.160000000000E-01
	O12	O	-1.113000000000E-01	3.963000000000E-01	-2.160000000000E-01
	O13	O	-3.963000000000E-01	-1.113000000000E-01	-2.160000000000E-01
	O14	O	3.963000000000E-01	1.113000000000E-01	-2.160000000000E-01
	O15	O	3.963000000000E-01	-1.113000000000E-01	2.160000000000E-01
	O16	O	-3.963000000000E-01	1.113000000000E-01	2.160000000000E-01
	O17	O	1.874000000000E-01	-1.071000000000E-01	3.096000000000E-01
	O18	O	-1.874000000000E-01	1.071000000000E-01	3.096000000000E-01
	O19	O	1.874000000000E-01	1.071000000000E-01	-3.096000000000E-01
	O20	O	-1.874000000000E-01	-1.071000000000E-01	-3.096000000000E-01
	O21	O	1.071000000000E-01	-1.874000000000E-01	-3.096000000000E-01
	O22	O	-1.071000000000E-01	1.874000000000E-01	-3.096000000000E-01
	O23	O	-1.071000000000E-01	-1.874000000000E-01	3.096000000000E-01
	O24	O	1.071000000000E-01	1.874000000000E-01	3.096000000000E-01
	O25	O	3.126000000000E-01	-3.929000000000E-01	1.904000000000E-01
	O26	O	-3.126000000000E-01	3.929000000000E-01	1.904000000000E-01
	O27	O	3.126000000000E-01	3.929000000000E-01	-1.904000000000E-01
	O28	O	-3.126000000000E-01	-3.929000000000E-01	-1.904000000000E-01
	O29	O	3.929000000000E-01	-3.126000000000E-01	-1.904000000000E-01
	O30	O	-3.929000000000E-01	3.126000000000E-01	-1.904000000000E-01
	O31	O	-3.929000000000E-01	-3.126000000000E-01	1.904000000000E-01
	O32	O	3.929000000000E-01	3.126000000000E-01	1.904000000000E-01
	O33	O	3.007000000000E-01	8.250000000000E-02	3.756000000000E-01
	O34	O	-3.007000000000E-01	-8.250000000000E-02	3.756000000000E-01
	O35	O	3.007000000000E-01	-8.250000000000E-02	-3.756000000000E-01
	O36	O	-3.007000000000E-01	8.250000000000E-02	-3.756000000000E-01
	O37	O	-8.250000000000E-02	-3.007000000000E-01	-3.756000000000E-01
	O38	O	8.250000000000E-02	3.007000000000E-01	-3.756000000000E-01
	O39	O	8.250000000000E-02	-3.007000000000E-01	3.756000000000E-01
	O40	O	-8.250000000000E-02	3.007000000000E-01	3.756000000000E-01
	O41	O	1.993000000000E-01	4.175000000000E-01	1.244000000000E-01
	O42	O	-1.993000000000E-01	-4.175000000000E-01	1.244000000000E-01
	O43	O	1.993000000000E-01	-4.175000000000E-01	-1.244000000000E-01
	O44	O	-1.993000000000E-01	4.175000000000E-01	-1.244000000000E-01
	O45	O	-4.175000000000E-01	-1.993000000000E-01	-1.244000000000E-01
	O46	O	4.175000000000E-01	1.993000000000E-01	-1.244000000000E-01
	O47	O	4.175000000000E-01	-1.993000000000E-01	1.244000000000E-01
	O48	O	-4.175000000000E-01	1.993000000000E-01	1.244000000000E-01
	O49	O	-3.909000000000E-01	1.065000000000E-01	-4.662000000000E-01
	O50	O	3.909000000000E-01	-1.065000000000E-01	-4.662000000000E-01
	O51	O	-3.909000000000E-01	-1.065000000000E-01	4.662000000000E-01
	O52	O	3.909000000000E-01	1.065000000000E-01	4.662000000000E-01
	O53	O	-1.065000000000E-01	3.909000000000E-01	4.662000000000E-01
	O54	O	1.065000000000E-01	-3.909000000000E-01	4.662000000000E-01
	O55	O	1.065000000000E-01	3.909000000000E-01	-4.662000000000E-01
	O56	O	-1.065000000000E-01	-3.909000000000E-01	-4.662000000000E-01
	O57	O	-1.091000000000E-01	3.935000000000E-01	-3.380000000000E-02
	O58	O	1.091000000000E-01	-3.935000000000E-01	-3.380000000000E-02
	O59	O	-1.091000000000E-01	-3.935000000000E-01	3.380000000000E-02
	O60	O	1.091000000000E-01	3.935000000000E-01	3.380000000000E-02
	O61	O	-3.935000000000E-01	1.091000000000E-01	3.380000000000E-02
	O62	O	3.935000000000E-01	-1.091000000000E-01	3.380000000000E-02
	O63	O	3.935000000000E-01	1.091000000000E-01	-3.380000000000E-02
	O64	O	-3.935000000000E-01	-1.091000000000E-01	-3.380000000000E-02
	O65	O	1.877000000000E-01	-1.064000000000E-01	4.416000000000E-01
	O66	O	-1.877000000000E-01	1.064000000000E-01	4.416000000000E-01
	O67	O	1.877000000000E-01	1.064000000000E-01	-4.416000000000E-01
	O68	O	-1.877000000000E-01	-1.064000000000E-01	-4.416000000000E-01
	O69	O	1.064000000000E-01	-1.877000000000E-01	-4.416000000000E-01
	O70	O	-1.064000000000E-01	1.877000000000E-01	-4.416000000000E-01
	O71	O	-1.064000000000E-01	-1.877000000000E-01	4.416000000000E-01
	O72	O	1.064000000000E-01	1.877000000000E-01	4.416000000000E-01
	O73	O	3.123000000000E-01	-3.936000000000E-01	5.840000000000E-02
	O74	O	-3.123000000000E-01	3.936000000000E-01	5.840000000000E-02
	O75	O	3.123000000000E-01	3.936000000000E-01	-5.840000000000E-02
	O76	O	-3.123000000000E-01	-3.936000000000E-01	-5.840000000000E-02
	O77	O	3.936000000000E-01	-3.123000000000E-01	-5.840000000000E-02
	O78	O	-3.936000000000E-01	3.123000000000E-01	-5.840000000000E-02
	O79	O	-3.936000000000E-01	-3.123000000000E-01	5.840000000000E-02
	O80	O	3.936000000000E-01	3.123000000000E-01	5.840000000000E-02
	Si81	Si	2.459000000000E-01	6.700000000000E-02	3.199000000000E-01
	Si82	Si	-2.459000000000E-01	-6.700000000000E-02	3.199000000000E-01
	Si83	Si	2.459000000000E-01	-6.700000000000E-02	-3.199000000000E-01
	Si84	Si	-2.459000000000E-01	6.700000000000E-02	-3.199000000000E-01
	Si85	Si	-6.700000000000E-02	-2.459000000000E-01	-3.199000000000E-01
	Si86	Si	6.700000000000E-02	2.459000000000E-01	-3.199000000000E-01
	Si87	Si	6.700000000000E-02	-2.459000000000E-01	3.199000000000E-01
	Si88	Si	-6.700000000000E-02	2.459000000000E-01	3.199000000000E-01
	Si89	Si	2.541000000000E-01	4.330000000000E-01	1.801000000000E-01
	Si90	Si	-2.541000000000E-01	-4.330000000000E-01	1.801000000000E-01
	Si91	Si	2.541000000000E-01	-4.330000000000E-01	-1.801000000000E-01
	Si92	Si	-2.541000000000E-01	4.330000000000E-01	-1.801000000000E-01
	Si93	Si	-4.330000000000E-01	-2.541000000000E-01	-1.801000000000E-01
	Si94	Si	4.330000000000E-01	2.541000000000E-01	-1.801000000000E-01
	Si95	Si	4.330000000000E-01	-2.541000000000E-01	1.801000000000E-01
	Si96	Si	-4.330000000000E-01	2.541000000000E-01	1.801000000000E-01
	Si97	Si	6.800000000000E-02	-2.459000000000E-01	4.312000000000E-01
	Si98	Si	-6.800000000000E-02	2.459000000000E-01	4.312000000000E-01
	Si99	Si	6.800000000000E-02	2.459000000000E-01	-4.312000000000E-01
	Si100	Si	-6.800000000000E-02	-2.459000000000E-01	-4.312000000000E-01
	Si101	Si	2.459000000000E-01	-6.800000000000E-02	-4.312000000000E-01
	Si102	Si	-2.459000000000E-01	6.800000000000E-02	-4.312000000000E-01
	Si103	Si	-2.459000000000E-01	-6.800000000000E-02	4.312000000000E-01
	Si104	Si	2.459000000000E-01	6.800000000000E-02	4.312000000000E-01
	Si105	Si	4.320000000000E-01	-2.541000000000E-01	6.880000000000E-02
	Si106	Si	-4.320000000000E-01	2.541000000000E-01	6.880000000000E-02
	Si107	Si	4.320000000000E-01	2.541000000000E-01	-6.880000000000E-02
	Si108	Si	-4.320000000000E-01	-2.541000000000E-01	-6.880000000000E-02
	Si109	Si	2.541000000000E-01	-4.320000000000E-01	-6.880000000000E-02
	Si110	Si	-2.541000000000E-01	4.320000000000E-01	-6.880000000000E-02
	Si111	Si	-2.541000000000E-01	-4.320000000000E-01	6.880000000000E-02
	Si112	Si	2.541000000000E-01	4.320000000000E-01	6.880000000000E-02
	Si113	Si	-5.000000000000E-01	0.000000000000E+00	2.500000000000E-01
	Si114	Si	-5.000000000000E-01	0.000000000000E+00	-2.500000000000E-01
	Si115	Si	0.000000000000E+00	-5.000000000000E-01	-2.500000000000E-01
	Si116	Si	0.000000000000E+00	-5.000000000000E-01	2.500000000000E-01
	Si117	Si	-5.000000000000E-01	0.000000000000E+00	-5.000000000000E-01
	Si118	Si	0.000000000000E+00	-5.000000000000E-01	-5.000000000000E-01
	Si119	Si	0.000000000000E+00	-5.000000000000E-01	-6.449160758787E-17
	Si120	Si	-5.000000000000E-01	0.000000000000E+00	9.673741138180E-17


data_ USI
_chemical_name_common		'USI'
_cell_length_a		12.39212454
_cell_length_b		24.78424907
_cell_length_c		9.67200000
_cell_angle_alpha		74.424785
_cell_angle_beta		105.575215
_cell_angle_gamma		116.884650
_space group_name_H-M_alt		'P 1'
_space_group_IT_number		1

loop_
	_atom_site_label
	_atom_site_type_symbol
	_atom_site_fract_x
	_atom_site_fract_y
	_atom_site_fract_z
	O1	O	-2.043000000000E-01	-2.622500000000E-01	1.896000000000E-01
	O2	O	4.755000000000E-01	-1.021500000000E-01	-1.896000000000E-01
	O3	O	2.043000000000E-01	2.622500000000E-01	-1.896000000000E-01
	O4	O	-4.755000000000E-01	1.021500000000E-01	1.896000000000E-01
	O5	O	-2.625000000000E-01	1.312500000000E-01	1.195000000000E-01
	O6	O	2.625000000000E-01	-1.312500000000E-01	-1.195000000000E-01
	O7	O	-3.100000000000E-02	2.055000000000E-01	1.810000000000E-01
	O8	O	4.110000000000E-01	-1.550000000000E-02	-1.810000000000E-01
	O9	O	3.100000000000E-02	-2.055000000000E-01	-1.810000000000E-01
	O10	O	-4.110000000000E-01	1.550000000000E-02	1.810000000000E-01
	O11	O	-1.681000000000E-01	-2.665500000000E-01	-6.220000000000E-02
	O12	O	4.669000000000E-01	-8.405000000000E-02	6.220000000000E-02
	O13	O	1.681000000000E-01	2.665500000000E-01	6.220000000000E-02
	O14	O	-4.669000000000E-01	8.405000000000E-02	-6.220000000000E-02
	O15	O	4.090000000000E-02	1.803500000000E-01	-3.493000000000E-01
	O16	O	3.607000000000E-01	2.045000000000E-02	3.493000000000E-01
	O17	O	-4.090000000000E-02	-1.803500000000E-01	3.493000000000E-01
	O18	O	-3.607000000000E-01	-2.045000000000E-02	-3.493000000000E-01
	O19	O	-1.293000000000E-01	1.882500000000E-01	-2.523000000000E-01
	O20	O	3.765000000000E-01	-6.465000000000E-02	2.523000000000E-01
	O21	O	1.293000000000E-01	-1.882500000000E-01	2.523000000000E-01
	O22	O	-3.765000000000E-01	6.465000000000E-02	-2.523000000000E-01
	O23	O	-1.872000000000E-01	9.360000000000E-02	-3.723000000000E-01
	O24	O	1.872000000000E-01	-9.360000000000E-02	3.723000000000E-01
	O25	O	-1.375000000000E-01	2.028500000000E-01	4.662000000000E-01
	O26	O	4.057000000000E-01	-6.875000000000E-02	-4.662000000000E-01
	O27	O	1.375000000000E-01	-2.028500000000E-01	-4.662000000000E-01
	O28	O	-4.057000000000E-01	6.875000000000E-02	4.662000000000E-01
	O29	O	4.667000000000E-01	1.355500000000E-01	3.888000000000E-01
	O30	O	2.711000000000E-01	2.333500000000E-01	-3.888000000000E-01
	O31	O	-4.667000000000E-01	-1.355500000000E-01	-3.888000000000E-01
	O32	O	-2.711000000000E-01	-2.333500000000E-01	3.888000000000E-01
	O33	O	-1.860000000000E-01	-2.167000000000E-01	-3.392000000000E-01
	O34	O	-4.334000000000E-01	-9.300000000000E-02	3.392000000000E-01
	O35	O	1.860000000000E-01	2.167000000000E-01	3.392000000000E-01
	O36	O	4.334000000000E-01	9.300000000000E-02	-3.392000000000E-01
	O37	O	-3.458000000000E-01	-1.729000000000E-01	5.000000000000E-01
	O38	O	3.458000000000E-01	1.729000000000E-01	5.000000000000E-01
	O39	O	-4.157000000000E-01	-2.921500000000E-01	-4.148000000000E-01
	O40	O	4.157000000000E-01	-2.078500000000E-01	4.148000000000E-01
	Si41	Si	-1.663000000000E-01	-2.978500000000E-01	1.068000000000E-01
	Si42	Si	4.043000000000E-01	-8.315000000000E-02	-1.068000000000E-01
	Si43	Si	1.663000000000E-01	2.978500000000E-01	-1.068000000000E-01
	Si44	Si	-4.043000000000E-01	8.315000000000E-02	1.068000000000E-01
	Si45	Si	-1.028000000000E-01	1.659000000000E-01	-3.767000000000E-01
	Si46	Si	3.318000000000E-01	-5.140000000000E-02	3.767000000000E-01
	Si47	Si	1.028000000000E-01	-1.659000000000E-01	3.767000000000E-01
	Si48	Si	-3.318000000000E-01	5.140000000000E-02	-3.767000000000E-01
	Si49	Si	4.860000000000E-01	8.200000000000E-02	3.481000000000E-01
	Si50	Si	1.640000000000E-01	2.430000000000E-01	-3.481000000000E-01
	Si51	Si	-4.860000000000E-01	-8.200000000000E-02	-3.481000000000E-01
	Si52	Si	-1.640000000000E-01	-2.430000000000E-01	3.481000000000E-01
	Si53	Si	-3.049000000000E-01	-2.288500000000E-01	-4.661000000000E-01
	Si54	Si	-4.577000000000E-01	-1.524500000000E-01	4.661000000000E-01
	Si55	Si	3.049000000000E-01	2.288500000000E-01	4.661000000000E-01
	Si56	Si	4.577000000000E-01	1.524500000000E-01	-4.661000000000E-01
	Si57	Si	4.998000000000E-01	5.650000000000E-02	-2.086000000000E-01
	Si58	Si	1.130000000000E-01	2.499000000000E-01	2.086000000000E-01
	Si59	Si	-4.998000000000E-01	-5.650000000000E-02	2.086000000000E-01
	Si60	Si	-1.130000000000E-01	-2.499000000000E-01	-2.086000000000E-01
	O61	O	4.110000000000E-01	4.845000000000E-01	-1.810000000000E-01
	O62	O	-4.667000000000E-01	3.644500000000E-01	-3.888000000000E-01
	O63	O	3.607000000000E-01	-4.795500000000E-01	3.493000000000E-01
	O64	O	-2.711000000000E-01	2.666500000000E-01	3.888000000000E-01
	O65	O	-2.043000000000E-01	2.377500000000E-01	1.896000000000E-01
	O66	O	-1.860000000000E-01	2.833000000000E-01	-3.392000000000E-01
	O67	O	-4.090000000000E-02	3.196500000000E-01	3.493000000000E-01
	O68	O	-4.334000000000E-01	4.070000000000E-01	3.392000000000E-01
	O69	O	3.100000000000E-02	2.945000000000E-01	-1.810000000000E-01
	O70	O	1.860000000000E-01	-2.833000000000E-01	3.392000000000E-01
	O71	O	-3.607000000000E-01	4.795500000000E-01	-3.493000000000E-01
	O72	O	4.334000000000E-01	-4.070000000000E-01	-3.392000000000E-01
	O73	O	-2.625000000000E-01	-3.687500000000E-01	1.195000000000E-01
	O74	O	-3.458000000000E-01	3.271000000000E-01	5.000000000000E-01
	O75	O	-1.293000000000E-01	-3.117500000000E-01	-2.523000000000E-01
	O76	O	3.458000000000E-01	-3.271000000000E-01	5.000000000000E-01
	O77	O	-4.110000000000E-01	-4.845000000000E-01	1.810000000000E-01
	O78	O	-4.157000000000E-01	2.078500000000E-01	-4.148000000000E-01
	O79	O	3.765000000000E-01	4.353500000000E-01	2.523000000000E-01
	O80	O	4.157000000000E-01	2.921500000000E-01	4.148000000000E-01
	O81	O	2.043000000000E-01	-2.377500000000E-01	-1.896000000000E-01
	Si82	Si	-1.663000000000E-01	2.021500000000E-01	1.068000000000E-01
	O83	O	1.293000000000E-01	3.117500000000E-01	2.523000000000E-01
	Si84	Si	4.043000000000E-01	4.168500000000E-01	-1.068000000000E-01
	O85	O	-1.681000000000E-01	2.334500000000E-01	-6.220000000000E-02
	Si86	Si	1.663000000000E-01	-2.021500000000E-01	-1.068000000000E-01
	O87	O	-3.765000000000E-01	-4.353500000000E-01	-2.523000000000E-01
	Si88	Si	-4.043000000000E-01	-4.168500000000E-01	1.068000000000E-01
	O89	O	2.625000000000E-01	3.687500000000E-01	-1.195000000000E-01
	Si90	Si	-1.028000000000E-01	-3.341000000000E-01	-3.767000000000E-01
	O91	O	-1.872000000000E-01	-4.064000000000E-01	-3.723000000000E-01
	Si92	Si	3.318000000000E-01	4.486000000000E-01	3.767000000000E-01
	O93	O	4.669000000000E-01	4.159500000000E-01	6.220000000000E-02
	Si94	Si	1.028000000000E-01	3.341000000000E-01	3.767000000000E-01
	O95	O	1.872000000000E-01	4.064000000000E-01	3.723000000000E-01
	Si96	Si	-3.318000000000E-01	-4.486000000000E-01	-3.767000000000E-01
	O97	O	4.755000000000E-01	3.978500000000E-01	-1.896000000000E-01
	Si98	Si	4.860000000000E-01	-4.180000000000E-01	3.481000000000E-01
	O99	O	-1.375000000000E-01	-2.971500000000E-01	4.662000000000E-01
	Si100	Si	1.640000000000E-01	-2.570000000000E-01	-3.481000000000E-01
	O101	O	1.681000000000E-01	-2.334500000000E-01	6.220000000000E-02
	Si102	Si	-4.860000000000E-01	4.180000000000E-01	-3.481000000000E-01
	O103	O	4.057000000000E-01	4.312500000000E-01	-4.662000000000E-01
	Si104	Si	-1.640000000000E-01	2.570000000000E-01	3.481000000000E-01
	O105	O	-3.100000000000E-02	-2.945000000000E-01	1.810000000000E-01
	Si106	Si	-3.049000000000E-01	2.711500000000E-01	-4.661000000000E-01
	O107	O	1.375000000000E-01	2.971500000000E-01	-4.662000000000E-01
	Si108	Si	-4.577000000000E-01	3.475500000000E-01	4.661000000000E-01
	O109	O	-4.669000000000E-01	-4.159500000000E-01	-6.220000000000E-02
	Si110	Si	3.049000000000E-01	-2.711500000000E-01	4.661000000000E-01
	O111	O	-4.057000000000E-01	-4.312500000000E-01	4.662000000000E-01
	Si112	Si	4.577000000000E-01	-3.475500000000E-01	-4.661000000000E-01
	O113	O	-4.755000000000E-01	-3.978500000000E-01	1.896000000000E-01
	Si114	Si	4.998000000000E-01	-4.435000000000E-01	-2.086000000000E-01
	O115	O	4.667000000000E-01	-3.644500000000E-01	3.888000000000E-01
	Si116	Si	1.130000000000E-01	-2.501000000000E-01	2.086000000000E-01
	O117	O	4.090000000000E-02	-3.196500000000E-01	-3.493000000000E-01
	Si118	Si	-4.998000000000E-01	4.435000000000E-01	2.086000000000E-01
	O119	O	2.711000000000E-01	-2.666500000000E-01	-3.888000000000E-01
	Si120	Si	-1.130000000000E-01	2.501000000000E-01	-2.086000000000E-01


data_ UTL
_chemical_name_common		'UTL'
_cell_length_a		16.09249080
_cell_length_b		16.09249080
_cell_length_c		12.44900000
_cell_angle_alpha		76.596503
_cell_angle_beta		103.403497
_cell_angle_gamma		128.557756
_space group_name_H-M_alt		'P 1'
_space_group_IT_number		1

loop_
	_atom_site_label
	_atom_site_type_symbol
	_atom_site_fract_x
	_atom_site_fract_y
	_atom_site_fract_z
	O1	O	9.910000000000E-02	2.603000000000E-01	-2.589000000000E-01
	O2	O	2.603000000000E-01	9.910000000000E-02	2.589000000000E-01
	O3	O	-9.910000000000E-02	-2.603000000000E-01	2.589000000000E-01
	O4	O	-2.603000000000E-01	-9.910000000000E-02	-2.589000000000E-01
	O5	O	1.366000000000E-01	1.214000000000E-01	-1.585000000000E-01
	O6	O	1.214000000000E-01	1.366000000000E-01	1.585000000000E-01
	O7	O	-1.366000000000E-01	-1.214000000000E-01	1.585000000000E-01
	O8	O	-1.214000000000E-01	-1.366000000000E-01	-1.585000000000E-01
	O9	O	-6.060000000000E-02	6.060000000000E-02	-2.012000000000E-01
	O10	O	6.060000000000E-02	-6.060000000000E-02	2.012000000000E-01
	O11	O	7.240000000000E-02	1.896000000000E-01	-4.860000000000E-02
	O12	O	1.896000000000E-01	7.240000000000E-02	4.860000000000E-02
	O13	O	-7.240000000000E-02	-1.896000000000E-01	4.860000000000E-02
	O14	O	-1.896000000000E-01	-7.240000000000E-02	-4.860000000000E-02
	O15	O	8.320000000000E-02	2.786000000000E-01	1.112000000000E-01
	O16	O	2.786000000000E-01	8.320000000000E-02	-1.112000000000E-01
	O17	O	-8.320000000000E-02	-2.786000000000E-01	-1.112000000000E-01
	O18	O	-2.786000000000E-01	-8.320000000000E-02	1.112000000000E-01
	O19	O	-7.480000000000E-02	7.480000000000E-02	8.900000000000E-02
	O20	O	7.480000000000E-02	-7.480000000000E-02	-8.900000000000E-02
	O21	O	2.173000000000E-01	-2.173000000000E-01	-1.756000000000E-01
	O22	O	-2.173000000000E-01	2.173000000000E-01	1.756000000000E-01
	O23	O	2.017000000000E-01	-3.897000000000E-01	-1.645000000000E-01
	O24	O	-3.897000000000E-01	2.017000000000E-01	1.645000000000E-01
	O25	O	-2.017000000000E-01	3.897000000000E-01	1.645000000000E-01
	O26	O	3.897000000000E-01	-2.017000000000E-01	-1.645000000000E-01
	O27	O	2.546000000000E-01	-2.546000000000E-01	-3.488000000000E-01
	O28	O	-2.546000000000E-01	2.546000000000E-01	3.488000000000E-01
	O29	O	-4.011000000000E-01	2.107000000000E-01	-2.147000000000E-01
	O30	O	2.107000000000E-01	-4.011000000000E-01	2.147000000000E-01
	O31	O	4.011000000000E-01	-2.107000000000E-01	2.147000000000E-01
	O32	O	-2.107000000000E-01	4.011000000000E-01	-2.147000000000E-01
	O33	O	-2.292000000000E-01	2.292000000000E-01	-2.224000000000E-01
	O34	O	2.292000000000E-01	-2.292000000000E-01	2.224000000000E-01
	O35	O	-2.582000000000E-01	2.582000000000E-01	-3.920000000000E-02
	O36	O	2.582000000000E-01	-2.582000000000E-01	3.920000000000E-02
	O37	O	-2.264000000000E-01	2.264000000000E-01	-4.336000000000E-01
	O38	O	2.264000000000E-01	-2.264000000000E-01	4.336000000000E-01
	O39	O	-2.559000000000E-01	6.830000000000E-02	-2.839000000000E-01
	O40	O	6.830000000000E-02	-2.559000000000E-01	2.839000000000E-01
	O41	O	2.559000000000E-01	-6.830000000000E-02	2.839000000000E-01
	O42	O	-6.830000000000E-02	2.559000000000E-01	-2.839000000000E-01
	O43	O	-3.978000000000E-01	2.088000000000E-01	4.670000000000E-01
	O44	O	2.088000000000E-01	-3.978000000000E-01	-4.670000000000E-01
	O45	O	3.978000000000E-01	-2.088000000000E-01	-4.670000000000E-01
	O46	O	-2.088000000000E-01	3.978000000000E-01	4.670000000000E-01
	O47	O	5.420000000000E-02	3.966000000000E-01	1.919000000000E-01
	O48	O	3.966000000000E-01	5.420000000000E-02	-1.919000000000E-01
	O49	O	-5.420000000000E-02	-3.966000000000E-01	-1.919000000000E-01
	O50	O	-3.966000000000E-01	-5.420000000000E-02	1.919000000000E-01
	O51	O	9.400000000000E-03	-4.708000000000E-01	1.902000000000E-01
	O52	O	-4.708000000000E-01	9.400000000000E-03	-1.902000000000E-01
	O53	O	-9.400000000000E-03	4.708000000000E-01	-1.902000000000E-01
	O54	O	4.708000000000E-01	-9.400000000000E-03	1.902000000000E-01
	O55	O	9.150000000000E-02	4.745000000000E-01	3.751000000000E-01
	O56	O	4.745000000000E-01	9.150000000000E-02	-3.751000000000E-01
	O57	O	-9.150000000000E-02	-4.745000000000E-01	-3.751000000000E-01
	O58	O	-4.745000000000E-01	-9.150000000000E-02	3.751000000000E-01
	O59	O	8.100000000000E-02	3.942000000000E-01	-4.163000000000E-01
	O60	O	3.942000000000E-01	8.100000000000E-02	4.163000000000E-01
	O61	O	-8.100000000000E-02	-3.942000000000E-01	4.163000000000E-01
	O62	O	-3.942000000000E-01	-8.100000000000E-02	-4.163000000000E-01
	O63	O	2.296396131253E-17	5.000000000000E-01	-5.000000000000E-01
	O64	O	5.000000000000E-01	1.231292693723E-16	-5.000000000000E-01
	O65	O	1.149000000000E-01	4.191000000000E-01	-2.049000000000E-01
	O66	O	4.191000000000E-01	1.149000000000E-01	2.049000000000E-01
	O67	O	-1.149000000000E-01	-4.191000000000E-01	2.049000000000E-01
	O68	O	-4.191000000000E-01	-1.149000000000E-01	-2.049000000000E-01
	O69	O	1.034000000000E-01	4.472000000000E-01	-1.190000000000E-02
	O70	O	4.472000000000E-01	1.034000000000E-01	1.190000000000E-02
	O71	O	-1.034000000000E-01	-4.472000000000E-01	1.190000000000E-02
	O72	O	-4.472000000000E-01	-1.034000000000E-01	-1.190000000000E-02
	O73	O	-8.450000000000E-02	2.731000000000E-01	3.640000000000E-02
	O74	O	2.731000000000E-01	-8.450000000000E-02	-3.640000000000E-02
	O75	O	8.450000000000E-02	-2.731000000000E-01	-3.640000000000E-02
	O76	O	-2.731000000000E-01	8.450000000000E-02	3.640000000000E-02
	Si77	Si	6.200000000000E-02	1.578000000000E-01	-1.670000000000E-01
	Si78	Si	1.578000000000E-01	6.200000000000E-02	1.670000000000E-01
	Si79	Si	-6.200000000000E-02	-1.578000000000E-01	1.670000000000E-01
	Si80	Si	-1.578000000000E-01	-6.200000000000E-02	-1.670000000000E-01
	Si81	Si	5.000000000000E-02	1.698000000000E-01	7.770000000000E-02
	Si82	Si	1.698000000000E-01	5.000000000000E-02	-7.770000000000E-02
	Si83	Si	-5.000000000000E-02	-1.698000000000E-01	-7.770000000000E-02
	Si84	Si	-1.698000000000E-01	-5.000000000000E-02	7.770000000000E-02
	Si85	Si	9.080000000000E-02	-5.000000000000E-01	2.422000000000E-01
	Si86	Si	5.000000000000E-01	9.080000000000E-02	-2.422000000000E-01
	Si87	Si	-9.080000000000E-02	-5.000000000000E-01	-2.422000000000E-01
	Si88	Si	-5.000000000000E-01	-9.080000000000E-02	2.422000000000E-01
	Si89	Si	9.510000000000E-02	4.931000000000E-01	4.982000000000E-01
	Si90	Si	4.931000000000E-01	9.510000000000E-02	-4.982000000000E-01
	Si91	Si	-9.510000000000E-02	-4.931000000000E-01	-4.982000000000E-01
	Si92	Si	-4.931000000000E-01	-9.510000000000E-02	4.982000000000E-01
	Si93	Si	1.010000000000E-01	4.866000000000E-01	-1.431000000000E-01
	Si94	Si	4.866000000000E-01	1.010000000000E-01	1.431000000000E-01
	Si95	Si	-1.010000000000E-01	-4.866000000000E-01	1.431000000000E-01
	Si96	Si	-4.866000000000E-01	-1.010000000000E-01	-1.431000000000E-01
	Si97	Si	4.030000000000E-02	3.497000000000E-01	8.270000000000E-02
	Si98	Si	3.497000000000E-01	4.030000000000E-02	-8.270000000000E-02
	Si99	Si	-4.030000000000E-02	-3.497000000000E-01	-8.270000000000E-02
	Si100	Si	-3.497000000000E-01	-4.030000000000E-02	8.270000000000E-02
	Si101	Si	5.810000000000E-02	3.333000000000E-01	-2.924000000000E-01
	Si102	Si	3.333000000000E-01	5.810000000000E-02	2.924000000000E-01
	Si103	Si	-5.810000000000E-02	-3.333000000000E-01	2.924000000000E-01
	Si104	Si	-3.333000000000E-01	-5.810000000000E-02	-2.924000000000E-01
	Si105	Si	2.660000000000E-01	-2.660000000000E-01	-2.153000000000E-01
	Si106	Si	-2.660000000000E-01	2.660000000000E-01	2.153000000000E-01
	Si107	Si	-2.753000000000E-01	2.753000000000E-01	-1.730000000000E-01
	Si108	Si	2.753000000000E-01	-2.753000000000E-01	1.730000000000E-01
	Si109	Si	-1.954000000000E-01	1.954000000000E-01	-3.064000000000E-01
	Si110	Si	1.954000000000E-01	-1.954000000000E-01	3.064000000000E-01
	Si111	Si	-2.722000000000E-01	2.722000000000E-01	4.612000000000E-01
	Si112	Si	2.722000000000E-01	-2.722000000000E-01	-4.612000000000E-01
	Si113	Si	-2.079000000000E-01	2.079000000000E-01	5.360000000000E-02
	Si114	Si	2.079000000000E-01	-2.079000000000E-01	-5.360000000000E-02


data_ VET
_chemical_name_common		'VET'
_cell_length_a		26.09600000
_cell_length_b		13.04800000
_cell_length_c		4.94800000
_cell_angle_alpha		90.000000
_cell_angle_beta		90.000000
_cell_angle_gamma		90.000000
_space group_name_H-M_alt		'P 1'
_space_group_IT_number		1

loop_
	_atom_site_label
	_atom_site_type_symbol
	_atom_site_fract_x
	_atom_site_fract_y
	_atom_site_fract_z
	O1	O	4.705000000000E-02	3.550000000000E-02	-3.111000000000E-01
	O2	O	-4.705000000000E-02	-3.550000000000E-02	-3.111000000000E-01
	O3	O	1.775000000000E-02	-9.410000000000E-02	3.111000000000E-01
	O4	O	-1.775000000000E-02	9.410000000000E-02	3.111000000000E-01
	O5	O	1.280000000000E-01	1.424000000000E-01	-4.515000000000E-01
	O6	O	-1.280000000000E-01	-1.424000000000E-01	-4.515000000000E-01
	O7	O	7.120000000000E-02	-2.560000000000E-01	4.515000000000E-01
	O8	O	-7.120000000000E-02	2.560000000000E-01	4.515000000000E-01
	O9	O	1.192000000000E-01	7.910000000000E-02	4.730000000000E-02
	O10	O	-1.192000000000E-01	-7.910000000000E-02	4.730000000000E-02
	O11	O	3.955000000000E-02	-2.384000000000E-01	-4.730000000000E-02
	O12	O	-3.955000000000E-02	2.384000000000E-01	-4.730000000000E-02
	O13	O	1.371000000000E-01	-5.390000000000E-02	-3.418000000000E-01
	O14	O	-1.371000000000E-01	5.390000000000E-02	-3.418000000000E-01
	O15	O	-2.695000000000E-02	-2.742000000000E-01	3.418000000000E-01
	O16	O	2.695000000000E-02	2.742000000000E-01	3.418000000000E-01
	O17	O	-1.383500000000E-01	2.426000000000E-01	-1.570000000000E-01
	O18	O	1.383500000000E-01	-2.426000000000E-01	-1.570000000000E-01
	O19	O	1.213000000000E-01	2.767000000000E-01	1.570000000000E-01
	O20	O	-1.213000000000E-01	-2.767000000000E-01	1.570000000000E-01
	O21	O	-8.350000000000E-02	4.100000000000E-01	-2.141000000000E-01
	O22	O	8.350000000000E-02	-4.100000000000E-01	-2.141000000000E-01
	O23	O	2.050000000000E-01	1.670000000000E-01	2.141000000000E-01
	O24	O	-2.050000000000E-01	-1.670000000000E-01	2.141000000000E-01
	O25	O	-2.109500000000E-01	1.792000000000E-01	-4.881000000000E-01
	O26	O	2.109500000000E-01	-1.792000000000E-01	-4.881000000000E-01
	O27	O	8.960000000000E-02	4.219000000000E-01	4.881000000000E-01
	O28	O	-8.960000000000E-02	-4.219000000000E-01	4.881000000000E-01
	O29	O	-2.066500000000E-01	1.098000000000E-01	1.170000000000E-02
	O30	O	2.066500000000E-01	-1.098000000000E-01	1.170000000000E-02
	O31	O	5.490000000000E-02	4.133000000000E-01	-1.170000000000E-02
	O32	O	-5.490000000000E-02	-4.133000000000E-01	-1.170000000000E-02
	O33	O	2.500000000000E-01	0.000000000000E+00	3.922000000000E-01
	O34	O	0.000000000000E+00	5.000000000000E-01	-3.922000000000E-01
	Si35	Si	1.076000000000E-01	5.030000000000E-02	-2.632000000000E-01
	Si36	Si	-1.076000000000E-01	-5.030000000000E-02	-2.632000000000E-01
	Si37	Si	2.515000000000E-02	-2.152000000000E-01	2.632000000000E-01
	Si38	Si	-2.515000000000E-02	2.152000000000E-01	2.632000000000E-01
	Si39	Si	-8.295000000000E-02	2.870000000000E-01	-2.397000000000E-01
	Si40	Si	8.295000000000E-02	-2.870000000000E-01	-2.397000000000E-01
	Si41	Si	1.435000000000E-01	1.659000000000E-01	2.397000000000E-01
	Si42	Si	-1.435000000000E-01	-1.659000000000E-01	2.397000000000E-01
	Si43	Si	-1.734000000000E-01	1.466000000000E-01	-2.443000000000E-01
	Si44	Si	1.734000000000E-01	-1.466000000000E-01	-2.443000000000E-01
	Si45	Si	7.330000000000E-02	3.468000000000E-01	2.443000000000E-01
	Si46	Si	-7.330000000000E-02	-3.468000000000E-01	2.443000000000E-01
	Si47	Si	-2.407000000000E-01	1.147000000000E-01	2.826000000000E-01
	Si48	Si	2.407000000000E-01	-1.147000000000E-01	2.826000000000E-01
	Si49	Si	5.735000000000E-02	4.814000000000E-01	-2.826000000000E-01
	Si50	Si	-5.735000000000E-02	-4.814000000000E-01	-2.826000000000E-01
	Si51	Si	0.000000000000E+00	0.000000000000E+00	-5.000000000000E-01
	O52	O	-2.890500000000E-01	-1.792000000000E-01	-4.881000000000E-01
	O53	O	-4.288000000000E-01	-2.560000000000E-01	4.515000000000E-01
	O54	O	-4.104000000000E-01	4.219000000000E-01	4.881000000000E-01
	O55	O	3.629000000000E-01	5.390000000000E-02	-3.418000000000E-01
	O56	O	4.104000000000E-01	-4.219000000000E-01	4.881000000000E-01
	O57	O	4.822500000000E-01	9.410000000000E-02	3.111000000000E-01
	O58	O	2.933500000000E-01	1.098000000000E-01	1.170000000000E-02
	O59	O	4.730500000000E-01	-2.742000000000E-01	3.418000000000E-01
	O60	O	-2.933500000000E-01	-1.098000000000E-01	1.170000000000E-02
	O61	O	4.288000000000E-01	2.560000000000E-01	4.515000000000E-01
	O62	O	-4.451000000000E-01	4.133000000000E-01	-1.170000000000E-02
	O63	O	-4.730500000000E-01	2.742000000000E-01	3.418000000000E-01
	O64	O	4.451000000000E-01	-4.133000000000E-01	-1.170000000000E-02
	O65	O	-4.529500000000E-01	3.550000000000E-02	-3.111000000000E-01
	O66	O	-2.500000000000E-01	0.000000000000E+00	3.922000000000E-01
	O67	O	3.616500000000E-01	2.426000000000E-01	-1.570000000000E-01
	O68	O	-5.000000000000E-01	5.000000000000E-01	-3.922000000000E-01
	O69	O	-3.808000000000E-01	7.910000000000E-02	4.730000000000E-02
	Si70	Si	-3.924000000000E-01	5.030000000000E-02	-2.632000000000E-01
	O71	O	-3.616500000000E-01	-2.426000000000E-01	-1.570000000000E-01
	Si72	Si	3.924000000000E-01	-5.030000000000E-02	-2.632000000000E-01
	O73	O	-3.720000000000E-01	1.424000000000E-01	-4.515000000000E-01
	Si74	Si	-4.748500000000E-01	-2.152000000000E-01	2.632000000000E-01
	O75	O	-3.787000000000E-01	2.767000000000E-01	1.570000000000E-01
	Si76	Si	4.748500000000E-01	2.152000000000E-01	2.632000000000E-01
	O77	O	3.808000000000E-01	-7.910000000000E-02	4.730000000000E-02
	Si78	Si	4.170500000000E-01	2.870000000000E-01	-2.397000000000E-01
	O79	O	3.787000000000E-01	-2.767000000000E-01	1.570000000000E-01
	Si80	Si	-4.170500000000E-01	-2.870000000000E-01	-2.397000000000E-01
	O81	O	-4.822500000000E-01	-9.410000000000E-02	3.111000000000E-01
	Si82	Si	-3.565000000000E-01	1.659000000000E-01	2.397000000000E-01
	O83	O	4.165000000000E-01	4.100000000000E-01	-2.141000000000E-01
	Si84	Si	3.565000000000E-01	-1.659000000000E-01	2.397000000000E-01
	O85	O	-4.604500000000E-01	-2.384000000000E-01	-4.730000000000E-02
	Si86	Si	3.266000000000E-01	1.466000000000E-01	-2.443000000000E-01
	O87	O	-4.165000000000E-01	-4.100000000000E-01	-2.141000000000E-01
	Si88	Si	-3.266000000000E-01	-1.466000000000E-01	-2.443000000000E-01
	O89	O	3.720000000000E-01	-1.424000000000E-01	-4.515000000000E-01
	Si90	Si	-4.267000000000E-01	3.468000000000E-01	2.443000000000E-01
	O91	O	-2.950000000000E-01	1.670000000000E-01	2.141000000000E-01
	Si92	Si	4.267000000000E-01	-3.468000000000E-01	2.443000000000E-01
	O93	O	4.604500000000E-01	2.384000000000E-01	-4.730000000000E-02
	Si94	Si	2.593000000000E-01	1.147000000000E-01	2.826000000000E-01
	O95	O	2.950000000000E-01	-1.670000000000E-01	2.141000000000E-01
	Si96	Si	-2.593000000000E-01	-1.147000000000E-01	2.826000000000E-01
	O97	O	4.529500000000E-01	-3.550000000000E-02	-3.111000000000E-01
	Si98	Si	-4.426500000000E-01	4.814000000000E-01	-2.826000000000E-01
	O99	O	2.890500000000E-01	1.792000000000E-01	-4.881000000000E-01
	Si100	Si	4.426500000000E-01	-4.814000000000E-01	-2.826000000000E-01
	O101	O	-3.629000000000E-01	-5.390000000000E-02	-3.418000000000E-01
	Si102	Si	-5.000000000000E-01	0.000000000000E+00	-5.000000000000E-01


data_ VFI
_chemical_name_common		'VFI'
_cell_length_a		18.28400000
_cell_length_b		18.28400000
_cell_length_c		8.58900000
_cell_angle_alpha		90.000000
_cell_angle_beta		90.000000
_cell_angle_gamma		120.000000
_space group_name_H-M_alt		'P 1'
_space_group_IT_number		1

loop_
	_atom_site_label
	_atom_site_type_symbol
	_atom_site_fract_x
	_atom_site_fract_y
	_atom_site_fract_z
	O1	O	4.153500000000E-01	-1.693000000000E-01	0.000000000000E+00
	O2	O	-4.153500000000E-01	1.693000000000E-01	-5.000000000000E-01
	O3	O	1.693000000000E-01	-4.153500000000E-01	0.000000000000E+00
	O4	O	4.153500000000E-01	-4.153500000000E-01	0.000000000000E+00
	O5	O	-4.153500000000E-01	4.153500000000E-01	-5.000000000000E-01
	O6	O	-1.693000000000E-01	4.153500000000E-01	-5.000000000000E-01
	O7	O	-4.153500000000E-01	1.693000000000E-01	0.000000000000E+00
	O8	O	4.153500000000E-01	-1.693000000000E-01	-5.000000000000E-01
	O9	O	-1.693000000000E-01	4.153500000000E-01	0.000000000000E+00
	O10	O	-4.153500000000E-01	4.153500000000E-01	0.000000000000E+00
	O11	O	4.153500000000E-01	-4.153500000000E-01	-5.000000000000E-01
	O12	O	1.693000000000E-01	-4.153500000000E-01	-5.000000000000E-01
	O13	O	2.493000000000E-01	4.986000000000E-01	0.000000000000E+00
	O14	O	-2.493000000000E-01	-4.986000000000E-01	-5.000000000000E-01
	O15	O	-4.986000000000E-01	-2.493000000000E-01	0.000000000000E+00
	O16	O	2.493000000000E-01	-2.493000000000E-01	0.000000000000E+00
	O17	O	-2.493000000000E-01	2.493000000000E-01	-5.000000000000E-01
	O18	O	4.986000000000E-01	2.493000000000E-01	-5.000000000000E-01
	O19	O	-2.493000000000E-01	-4.986000000000E-01	0.000000000000E+00
	O20	O	2.493000000000E-01	4.986000000000E-01	-5.000000000000E-01
	O21	O	4.986000000000E-01	2.493000000000E-01	0.000000000000E+00
	O22	O	-2.493000000000E-01	2.493000000000E-01	0.000000000000E+00
	O23	O	2.493000000000E-01	-2.493000000000E-01	-5.000000000000E-01
	O24	O	-4.986000000000E-01	-2.493000000000E-01	-5.000000000000E-01
	O25	O	8.340000000000E-02	-3.352000000000E-01	-1.600000000000E-03
	O26	O	-8.340000000000E-02	3.352000000000E-01	4.984000000000E-01
	O27	O	3.352000000000E-01	4.186000000000E-01	-1.600000000000E-03
	O28	O	-4.186000000000E-01	-8.340000000000E-02	-1.600000000000E-03
	O29	O	4.186000000000E-01	8.340000000000E-02	4.984000000000E-01
	O30	O	-3.352000000000E-01	-4.186000000000E-01	4.984000000000E-01
	O31	O	4.186000000000E-01	3.352000000000E-01	-4.984000000000E-01
	O32	O	-8.340000000000E-02	-4.186000000000E-01	-4.984000000000E-01
	O33	O	-3.352000000000E-01	8.340000000000E-02	-4.984000000000E-01
	O34	O	3.352000000000E-01	-8.340000000000E-02	1.600000000000E-03
	O35	O	8.340000000000E-02	4.186000000000E-01	1.600000000000E-03
	O36	O	-4.186000000000E-01	-3.352000000000E-01	1.600000000000E-03
	O37	O	-8.340000000000E-02	3.352000000000E-01	1.600000000000E-03
	O38	O	8.340000000000E-02	-3.352000000000E-01	-4.984000000000E-01
	O39	O	-3.352000000000E-01	-4.186000000000E-01	1.600000000000E-03
	O40	O	4.186000000000E-01	8.340000000000E-02	1.600000000000E-03
	O41	O	-4.186000000000E-01	-8.340000000000E-02	-4.984000000000E-01
	O42	O	3.352000000000E-01	4.186000000000E-01	-4.984000000000E-01
	O43	O	-4.186000000000E-01	-3.352000000000E-01	4.984000000000E-01
	O44	O	8.340000000000E-02	4.186000000000E-01	4.984000000000E-01
	O45	O	3.352000000000E-01	-8.340000000000E-02	4.984000000000E-01
	O46	O	-3.352000000000E-01	8.340000000000E-02	-1.600000000000E-03
	O47	O	-8.340000000000E-02	-4.186000000000E-01	-1.600000000000E-03
	O48	O	4.186000000000E-01	3.352000000000E-01	-1.600000000000E-03
	O49	O	-3.333000000000E-01	4.986000000000E-01	2.500000000000E-01
	O50	O	3.333000000000E-01	-4.986000000000E-01	-2.500000000000E-01
	O51	O	-4.986000000000E-01	1.681000000000E-01	2.500000000000E-01
	O52	O	-1.681000000000E-01	3.333000000000E-01	2.500000000000E-01
	O53	O	1.681000000000E-01	-3.333000000000E-01	-2.500000000000E-01
	O54	O	4.986000000000E-01	-1.681000000000E-01	-2.500000000000E-01
	O55	O	1.681000000000E-01	-4.986000000000E-01	2.500000000000E-01
	O56	O	3.333000000000E-01	-1.681000000000E-01	2.500000000000E-01
	O57	O	4.986000000000E-01	-3.333000000000E-01	2.500000000000E-01
	O58	O	-4.986000000000E-01	3.333000000000E-01	-2.500000000000E-01
	O59	O	-3.333000000000E-01	1.681000000000E-01	-2.500000000000E-01
	O60	O	-1.681000000000E-01	4.986000000000E-01	-2.500000000000E-01
	O61	O	-5.000000000000E-01	1.110223024625E-16	0.000000000000E+00
	O62	O	-5.000000000000E-01	5.551115123126E-17	-5.000000000000E-01
	O63	O	0.000000000000E+00	-5.000000000000E-01	0.000000000000E+00
	O64	O	-5.000000000000E-01	-5.000000000000E-01	0.000000000000E+00
	O65	O	-5.000000000000E-01	-5.000000000000E-01	-5.000000000000E-01
	O66	O	0.000000000000E+00	-5.000000000000E-01	-5.000000000000E-01
	O67	O	-4.167000000000E-01	2.775557561563E-17	2.500000000000E-01
	O68	O	4.167000000000E-01	-5.551115123126E-17	-2.500000000000E-01
	O69	O	0.000000000000E+00	-4.167000000000E-01	2.500000000000E-01
	O70	O	4.167000000000E-01	4.167000000000E-01	2.500000000000E-01
	O71	O	-4.167000000000E-01	-4.167000000000E-01	-2.500000000000E-01
	O72	O	0.000000000000E+00	4.167000000000E-01	-2.500000000000E-01
	Si73	Si	1.677000000000E-01	-3.333000000000E-01	-6.280000000000E-02
	Si74	Si	-1.677000000000E-01	3.333000000000E-01	4.372000000000E-01
	Si75	Si	3.333000000000E-01	-4.990000000000E-01	-6.280000000000E-02
	Si76	Si	4.990000000000E-01	-1.677000000000E-01	-6.280000000000E-02
	Si77	Si	-4.990000000000E-01	1.677000000000E-01	4.372000000000E-01
	Si78	Si	-3.333000000000E-01	4.990000000000E-01	4.372000000000E-01
	Si79	Si	-4.990000000000E-01	3.333000000000E-01	-4.372000000000E-01
	Si80	Si	-1.677000000000E-01	4.990000000000E-01	-4.372000000000E-01
	Si81	Si	-3.333000000000E-01	1.677000000000E-01	-4.372000000000E-01
	Si82	Si	3.333000000000E-01	-1.677000000000E-01	6.280000000000E-02
	Si83	Si	1.677000000000E-01	-4.990000000000E-01	6.280000000000E-02
	Si84	Si	4.990000000000E-01	-3.333000000000E-01	6.280000000000E-02
	Si85	Si	-1.677000000000E-01	3.333000000000E-01	6.280000000000E-02
	Si86	Si	1.677000000000E-01	-3.333000000000E-01	-4.372000000000E-01
	Si87	Si	-3.333000000000E-01	4.990000000000E-01	6.280000000000E-02
	Si88	Si	-4.990000000000E-01	1.677000000000E-01	6.280000000000E-02
	Si89	Si	4.990000000000E-01	-1.677000000000E-01	-4.372000000000E-01
	Si90	Si	3.333000000000E-01	-4.990000000000E-01	-4.372000000000E-01
	Si91	Si	4.990000000000E-01	-3.333000000000E-01	4.372000000000E-01
	Si92	Si	1.677000000000E-01	-4.990000000000E-01	4.372000000000E-01
	Si93	Si	3.333000000000E-01	-1.677000000000E-01	4.372000000000E-01
	Si94	Si	-3.333000000000E-01	1.677000000000E-01	-6.280000000000E-02
	Si95	Si	-1.677000000000E-01	4.990000000000E-01	-6.280000000000E-02
	Si96	Si	-4.990000000000E-01	3.333000000000E-01	-6.280000000000E-02
	Si97	Si	-4.172000000000E-01	0.000000000000E+00	6.290000000000E-02
	Si98	Si	4.172000000000E-01	0.000000000000E+00	-4.371000000000E-01
	Si99	Si	5.609167028028E-17	-4.172000000000E-01	6.290000000000E-02
	Si100	Si	4.172000000000E-01	4.172000000000E-01	6.290000000000E-02
	Si101	Si	-4.172000000000E-01	-4.172000000000E-01	-4.371000000000E-01
	Si102	Si	-5.609167028028E-17	4.172000000000E-01	-4.371000000000E-01
	Si103	Si	-4.172000000000E-01	2.775557561563E-17	4.371000000000E-01
	Si104	Si	4.172000000000E-01	4.172000000000E-01	4.371000000000E-01
	Si105	Si	-5.609167028028E-17	-4.172000000000E-01	4.371000000000E-01
	Si106	Si	5.609167028028E-17	4.172000000000E-01	-6.290000000000E-02
	Si107	Si	-4.172000000000E-01	-4.172000000000E-01	-6.290000000000E-02
	Si108	Si	4.172000000000E-01	-2.775557561563E-17	-6.290000000000E-02


data_ ZON
_chemical_name_common		'ZON'
_cell_length_a		6.91800000
_cell_length_b		14.87000000
_cell_length_c		17.23600000
_cell_angle_alpha		90.000000
_cell_angle_beta		90.000000
_cell_angle_gamma		90.000000
_space group_name_H-M_alt		'P 1'
_space_group_IT_number		1

loop_
	_atom_site_label
	_atom_site_type_symbol
	_atom_site_fract_x
	_atom_site_fract_y
	_atom_site_fract_z
	O1	O	-8.310000000000E-02	-3.211000000000E-01	3.694000000000E-01
	O2	O	8.310000000000E-02	3.211000000000E-01	-1.306000000000E-01
	O3	O	-8.310000000000E-02	-1.789000000000E-01	-3.694000000000E-01
	O4	O	8.310000000000E-02	1.789000000000E-01	1.306000000000E-01
	O5	O	8.310000000000E-02	3.211000000000E-01	-3.694000000000E-01
	O6	O	-8.310000000000E-02	-3.211000000000E-01	1.306000000000E-01
	O7	O	8.310000000000E-02	1.789000000000E-01	3.694000000000E-01
	O8	O	-8.310000000000E-02	-1.789000000000E-01	-1.306000000000E-01
	O9	O	2.937000000000E-01	-3.178000000000E-01	3.876000000000E-01
	O10	O	-2.937000000000E-01	3.178000000000E-01	-1.124000000000E-01
	O11	O	2.937000000000E-01	-1.822000000000E-01	-3.876000000000E-01
	O12	O	-2.937000000000E-01	1.822000000000E-01	1.124000000000E-01
	O13	O	-2.937000000000E-01	3.178000000000E-01	-3.876000000000E-01
	O14	O	2.937000000000E-01	-3.178000000000E-01	1.124000000000E-01
	O15	O	-2.937000000000E-01	1.822000000000E-01	3.876000000000E-01
	O16	O	2.937000000000E-01	-1.822000000000E-01	-1.124000000000E-01
	O17	O	1.063000000000E-01	-1.676000000000E-01	3.597000000000E-01
	O18	O	-1.063000000000E-01	1.676000000000E-01	-1.403000000000E-01
	O19	O	1.063000000000E-01	-3.324000000000E-01	-3.597000000000E-01
	O20	O	-1.063000000000E-01	3.324000000000E-01	1.403000000000E-01
	O21	O	-1.063000000000E-01	1.676000000000E-01	-3.597000000000E-01
	O22	O	1.063000000000E-01	-1.676000000000E-01	1.403000000000E-01
	O23	O	-1.063000000000E-01	3.324000000000E-01	3.597000000000E-01
	O24	O	1.063000000000E-01	-3.324000000000E-01	-1.403000000000E-01
	O25	O	1.434000000000E-01	-2.895000000000E-01	2.500000000000E-01
	O26	O	-1.434000000000E-01	2.895000000000E-01	-2.500000000000E-01
	O27	O	1.434000000000E-01	-2.105000000000E-01	-2.500000000000E-01
	O28	O	-1.434000000000E-01	2.105000000000E-01	2.500000000000E-01
	O29	O	8.210000000000E-02	4.300000000000E-03	3.957000000000E-01
	O30	O	-8.210000000000E-02	-4.300000000000E-03	-1.043000000000E-01
	O31	O	8.210000000000E-02	4.957000000000E-01	-3.957000000000E-01
	O32	O	-8.210000000000E-02	-4.957000000000E-01	1.043000000000E-01
	O33	O	-8.210000000000E-02	-4.300000000000E-03	-3.957000000000E-01
	O34	O	8.210000000000E-02	4.300000000000E-03	1.043000000000E-01
	O35	O	-8.210000000000E-02	-4.957000000000E-01	3.957000000000E-01
	O36	O	8.210000000000E-02	4.957000000000E-01	-1.043000000000E-01
	O37	O	3.080000000000E-01	-1.020000000000E-01	4.765000000000E-01
	O38	O	-3.080000000000E-01	1.020000000000E-01	-2.350000000000E-02
	O39	O	3.080000000000E-01	-3.980000000000E-01	-4.765000000000E-01
	O40	O	-3.080000000000E-01	3.980000000000E-01	2.350000000000E-02
	O41	O	-3.080000000000E-01	1.020000000000E-01	-4.765000000000E-01
	O42	O	3.080000000000E-01	-1.020000000000E-01	2.350000000000E-02
	O43	O	-3.080000000000E-01	3.980000000000E-01	4.765000000000E-01
	O44	O	3.080000000000E-01	-3.980000000000E-01	-2.350000000000E-02
	O45	O	-6.930000000000E-02	-1.179000000000E-01	4.877000000000E-01
	O46	O	6.930000000000E-02	1.179000000000E-01	-1.230000000000E-02
	O47	O	-6.930000000000E-02	-3.821000000000E-01	-4.877000000000E-01
	O48	O	6.930000000000E-02	3.821000000000E-01	1.230000000000E-02
	O49	O	6.930000000000E-02	1.179000000000E-01	-4.877000000000E-01
	O50	O	-6.930000000000E-02	-1.179000000000E-01	1.230000000000E-02
	O51	O	6.930000000000E-02	3.821000000000E-01	4.877000000000E-01
	O52	O	-6.930000000000E-02	-3.821000000000E-01	-1.230000000000E-02
	O53	O	-3.882000000000E-01	-3.996000000000E-01	4.311000000000E-01
	O54	O	3.882000000000E-01	3.996000000000E-01	-6.890000000000E-02
	O55	O	-3.882000000000E-01	-1.004000000000E-01	-4.311000000000E-01
	O56	O	3.882000000000E-01	1.004000000000E-01	6.890000000000E-02
	O57	O	3.882000000000E-01	3.996000000000E-01	-4.311000000000E-01
	O58	O	-3.882000000000E-01	-3.996000000000E-01	6.890000000000E-02
	O59	O	3.882000000000E-01	1.004000000000E-01	4.311000000000E-01
	O60	O	-3.882000000000E-01	-1.004000000000E-01	-6.890000000000E-02
	O61	O	-4.941000000000E-01	-2.500000000000E-01	-5.000000000000E-01
	O62	O	4.941000000000E-01	2.500000000000E-01	-9.509940087936E-17
	O63	O	4.941000000000E-01	2.500000000000E-01	-5.000000000000E-01
	O64	O	-4.941000000000E-01	-2.500000000000E-01	-2.220446049250E-16
	Si65	Si	1.146000000000E-01	-2.738000000000E-01	3.416000000000E-01
	Si66	Si	-1.146000000000E-01	2.738000000000E-01	-1.584000000000E-01
	Si67	Si	1.146000000000E-01	-2.262000000000E-01	-3.416000000000E-01
	Si68	Si	-1.146000000000E-01	2.262000000000E-01	1.584000000000E-01
	Si69	Si	-1.146000000000E-01	2.738000000000E-01	-3.416000000000E-01
	Si70	Si	1.146000000000E-01	-2.738000000000E-01	1.584000000000E-01
	Si71	Si	-1.146000000000E-01	2.262000000000E-01	3.416000000000E-01
	Si72	Si	1.146000000000E-01	-2.262000000000E-01	-1.584000000000E-01
	Si73	Si	1.069000000000E-01	-9.600000000000E-02	4.297000000000E-01
	Si74	Si	-1.069000000000E-01	9.600000000000E-02	-7.030000000000E-02
	Si75	Si	1.069000000000E-01	-4.040000000000E-01	-4.297000000000E-01
	Si76	Si	-1.069000000000E-01	4.040000000000E-01	7.030000000000E-02
	Si77	Si	-1.069000000000E-01	9.600000000000E-02	-4.297000000000E-01
	Si78	Si	1.069000000000E-01	-9.600000000000E-02	7.030000000000E-02
	Si79	Si	-1.069000000000E-01	4.040000000000E-01	4.297000000000E-01
	Si80	Si	1.069000000000E-01	-4.040000000000E-01	-7.030000000000E-02
	Si81	Si	-1.557000000000E-01	-3.995000000000E-01	4.268000000000E-01
	Si82	Si	1.557000000000E-01	3.995000000000E-01	-7.320000000000E-02
	Si83	Si	-1.557000000000E-01	-1.005000000000E-01	-4.268000000000E-01
	Si84	Si	1.557000000000E-01	1.005000000000E-01	7.320000000000E-02
	Si85	Si	1.557000000000E-01	3.995000000000E-01	-4.268000000000E-01
	Si86	Si	-1.557000000000E-01	-3.995000000000E-01	7.320000000000E-02
	Si87	Si	1.557000000000E-01	1.005000000000E-01	4.268000000000E-01
	Si88	Si	-1.557000000000E-01	-1.005000000000E-01	-7.320000000000E-02
	Si89	Si	4.297000000000E-01	-1.585000000000E-01	-4.605000000000E-01
	Si90	Si	-4.297000000000E-01	1.585000000000E-01	3.950000000000E-02
	Si91	Si	4.297000000000E-01	-3.415000000000E-01	4.605000000000E-01
	Si92	Si	-4.297000000000E-01	3.415000000000E-01	-3.950000000000E-02
	Si93	Si	-4.297000000000E-01	1.585000000000E-01	4.605000000000E-01
	Si94	Si	4.297000000000E-01	-1.585000000000E-01	-3.950000000000E-02
	Si95	Si	-4.297000000000E-01	3.415000000000E-01	-4.605000000000E-01
	Si96	Si	4.297000000000E-01	-3.415000000000E-01	3.950000000000E-02


